<?xml version="1.0" encoding="UTF-8"?>

<!-- generated on 10/09/15 20:22:18 by SUMO duarouter Version 0.22.0
<?xml version="1.0" encoding="UTF-8"?>

<configuration xmlns:xsi="http://www.w3.org/2001/XMLSchema-instance" xsi:noNamespaceSchemaLocation="http://sumo.dlr.de/xsd/duarouterConfiguration.xsd">

    <input>
        <net-file value="malaga.net.xml"/>
        <trip-files value="trips.trips.xml"/>
    </input>

    <output>
        <output-file value="malaga.rou2.xml"/>
    </output>

    <processing>
        <ignore-errors value="true"/>
    </processing>

    <time>
        <begin value="0.0"/>
        <end value="2700.0"/>
    </time>

    <report>
        <no-step-log value="true"/>
    </report>

</configuration>
-->

<routes xmlns:xsi="http://www.w3.org/2001/XMLSchema-instance" xsi:noNamespaceSchemaLocation="http://sumo.dlr.de/xsd/routes_file.xsd">
    <vehicle id="0" depart="0.00">
        <route edges="150187603#1 150187590#5 150187628#0 150187628#1 150187628#2 150187628#3 150187628#4 150187628#5 150187628#6 -187379#13 -187379#14 -187378 -187377 45406828#2 45406828#3 45406828#4 45406828#5 89670097#2 89670097#3 133955167#0 133955167#1 133955170#0 133955170#1 133955170#2 133955170#3 23202979#4 23202979#5 23202979#6 23202979#7 23202979#8 23202979#0 23202979#1 23202979#2 150315996#0 150315996#1 --188482#2"/>
    </vehicle>
    <vehicle id="1" depart="1.00">
        <route edges="37111025#1 37111025#2 37111025#3 37111025#4 37111025#5 32009493 32009494 86344882#0 86344882#1 86344882#2 60048060 -36489#0 -36489#1 -36489#2 -36489#3 -36489#4 -36489#5 -36493#0 -36493#1 -36493#2 -36493#3 -36493#4 -36497#0 -36497#1 -36497#2 -36497#3 -36497#4 -36497#5 -36497#6 -36497#7 -36773#1 -36773#2 -36773#3 -36773#4 -36773#5 -36773#6 146534981#8 146534981#9 146534981#10 146534981#11 146534981#12 146534981#13 35962646#0 35962646#1 -36771#0 -36771#1 -36771#2 -36771#3 -36771#4 -36771#5 -36771#6 -36771#7 -36771#8 -36771#9 -36771#10 -36771#11 27593742#7 27593742#6 27593742#5 27593742#4 27593742#3 27593742#2 27593742#1 27593742#0 10078462#3 10078462#2 10078462#1 10078462#0 -10022989 -10080099 --36753 10023204#0 10023204#1 10086722#1 10086722#2 35900338 72456715 10028184#0 10028184#1 10028184#2 146546030#0 146546030#1 146546034 35901833#0 35901833#1 35901598#0 35901598#1 35901598#2 35901598#3 35901598#4 166301879#5 -36757 166301879#0 166301880 -35836578#4 -35836578#3 -35836578#2 -35836578#1 -35836578#0 -34436912#2 -34436912#1 -34436912#0 -35777378#4 -35777378#3 -35777378#2 -35777378#1 -35777378#0 -35777380 -158785437#1 35769792#0 35769215#3 --37809#2 --37809#1 --37809#0 -37805 35777660#3 -37803#0 -37803#1 -37803#2 -37319#0 -37319#1 -37315#1 --37275#3 --37275#2 --37317"/>
    </vehicle>
    <vehicle id="2" depart="2.00">
        <route edges="93288946#1 93288946#2 93207816 93207817 92785661#0 93207765 93207774 93167371 93167368#0 93167368#1 93207808#1 93167359#1 35778190 83373624 83373625#0 89665893 89665903#1 89665899#0 89665899#1 89665899#2 35778196#4 35778196#5 35778196#6 89665908 89665898 35801048 99143420#3 99143420#4 99143445#0 99143445#1 99143445#2 150077576#5 150077576#6 150077576#7 150077576#8 150077576#9 150077576#0 45406830#3 45406830#4 45406830#5 45406842 150313533 150313537 150313528#2 150313528#3 150313528#4 150313528#5 150313528#6 150313528#7 150313528#8 150313528#9 150313528#0 -36769"/>
    </vehicle>
    <vehicle id="3" depart="3.00">
        <route edges="-98885180#4 98885180#4 77725625#0 77609169#0 23161453 -77755772#4 -77755772#3 -77755772#2 -77755772#1 -77755772#0 -36479 -36763 77755769#0 77755769#1 77755769#2 77755769#3 77755769#4 77755769#5 77755769#6 77728112 77728097 77728107#0 -36407 -36405#0 -36405#1 26992474 23161460#0 77727772 10023210#1 10023210#2 10023210#3 10023210#4 10023210#5 10023210#6 35801242#0 35801242#1 35801242#2 35801242#3 35801242#4 35801242#5 -35801145#20 -35801145#19 -35801145#18 -35801145#17 -35801145#16 -35801145#15 -35801145#14 -35801145#13 -35801145#12 -35801145#11 -35801145#10 -35801145#9 -35801145#8 -35801145#7 -35801145#6 -35801145#5 -35801145#4 -35801145#3 -35801145#2 -35801145#1 -35801145#0 45409802#0 45409802#1 45409802#2 45409802#3 45409802#4 45409802#5 45409802#6 45409802#7 136123198#0 136123198#1 136123198#2 136123198#3 136123198#4 140990894#0"/>
    </vehicle>
    <vehicle id="4" depart="4.00">
        <route edges="--36305#2 --36305#1 --36305#0 -45409806#3 -45409806#2 -45409806#1 -45409806#0 98849380#0 98849380#1 98849383#0 98849383#1 98849373#1 -98849375 98849379 98849381#3 -98847195#0 98847187#2 98847180#3 98847180#4 98847180#5 98847180#6 98847180#7 77609179#1 77609179#2 77609179#3 77609179#4 77609179#5 100292541#0 100292541#1 100294139#0 100294139#1 -36463#0 -36463#1 100294691 77609167 77609182#0 77725393#0 77725393#1 10024733#0 10024733#1 149032230 149032233#0 149032233#1 149032233#2 23051262#0 53539579#18 53539579#19 53539579#20 53539579#21 53539579#22 53539579#23 99006810 31362047#0 31362047#1 31362047#2 99006836 146485284#0 99006793 99006763#1 99006763#2 99006783 -10034143 -146534982#1 -146534982#0"/>
    </vehicle>
    <vehicle id="5" depart="5.00">
        <route edges="-37275#1 -37275#2 -37275#3 --37315#1 --37319#1 --37319#0 -37801#0 -37801#1 -37801#2 35777660#5 35777660#6 35777660#7 35777660#0 35777660#1 -37807 -37809#0 -37809#1 -37809#2 -37809#3 35860181 100164042 -36501#2 -36501#3 -36501#4 35786732 23203021#0 23203021#1 23203021#2 27594170#0 27594170#1 27594170#2 27594170#3 27594170#4 27594170#5 -10080608 -10080610 -10032034 -75503612 75503608 10080612#0 75503603 75503604 75503607#0 75503607#1 23051255 23162032#0 23162032#1 23162032#2 23162032#3 23162032#4 23162032#5 23162032#6 35902750#0 35902750#1 23162033 10023279#0 10023279#1 10023279#2 10023087#0 10023085#0 10023085#1 10023085#2 10023085#3 10023085#4 10023085#5 10023085#6 10023085#7 23051178#2 23051178#3 23051178#4 23051178#5 23042401#0 23042401#1 23042399#0 23042399#1 23042399#2 23042399#3 23042399#4 23042399#5 27234361#0 27234361#1 27234361#2 27234361#3 35801115#0 35801115#1 37048828#3 37048828#4 42998721#0 42998721#1 42998721#2"/>
    </vehicle>
    <vehicle id="6" depart="6.00">
        <route edges="27244500 23415971#1 86429243 86429242 28211325 28211326 93279665#0 93279665#1 77478665 77478659 150093154 150093160 150093150#0 150093145#0 35779244 -36815 31540844#1 98847185#0 98847185#1 -36813#0 -36813#1 -36813#2 -36813#3 -36813#4 77609179#5 77609179#6 77609179#7 77609164 98847182#0 98847182#1 98847182#2 98847182#3 98847182#4 98847182#5 98847182#6 98847182#7 98847178 98847184 98847200 -36799#0 -36799#1 -35801242#5 -35801242#4 -35801242#3 -35801242#2 -35801242#1 -35801242#0 10023210#7 10023210#8 10023210#9 10023210#10 10023210#11 10023210#12 100142994 27593738 35914969#2 35914969#3 -36399#8 10086722#0 10086722#1 10086722#2 35900338 72456715 10028184#0 10028184#1 10028184#2 146546030#0 146546030#1 146546034 35901833#0 35901833#1 35901598#0 35901598#1 35901598#2 35901598#3 35901598#4 166301879#5 -36757 166301879#0 166301880 -35836578#4 -35836578#3 -35836578#2 -35836578#1 -35836578#0 -34436912#2 -34436912#1 -34436912#0 -35777378#4 -35777378#3 -35777378#2 -35777378#1 -35777378#0 -35777380 -158785437#1 35769792#0 35769792#1 35769792#2 35769792#3 35834643#0 35834612#0 35834612#1 35834612#2 35834612#3 --37765"/>
    </vehicle>
    <vehicle id="7" depart="7.00">
        <route edges="-35842054#0 -35842058#2 -35842058#1 -35842058#0 35842062#4 35842062#5 35842062#0 -10056032#2 -10056032#1 -10056032#0 35850111#0 35850111#1 35850111#2 35850111#3 35846723#0 35846723#1 35847128 35843379#0 35843379#1 35843379#2 35843858#0 35843858#1 35843858#2 35843858#3 -35801647#1 -35801647#0 -35801645 100413831#0 10080070#0 10080070#1 10080070#2 10080070#3 10080070#4 10080070#5 10080070#6 10080070#7 10023031 10023307#0 10023307#1 10023307#2 10023307#3 -35777894#4 -35777894#3 -35777894#2 -35777894#1 -35777894#0 -36487#0 -36487#1 100142994 27593738 35914969#2 -36755#0 -36755#1"/>
    </vehicle>
    <vehicle id="8" depart="8.00">
        <route edges="45409815#2 98841101 35787071#4 35787071#5 35787071#6 35787071#7 35787071#0 35787071#1 100275054#10 100275054#11 37170105 37170099 37170102 23415906#1 23415909#0 31362181#0 31362181#1 77731255 32009163#1 53064986 53064987 53064980 53064982 35778504 35778460#0 35778460#1 35778191 36073102#0 36073102#1 83373614#0 83373614#1 23202979#6 23202979#7 23202979#8 23202979#0 23202979#1 23202979#2 150315996#0 150315996#1 150315996#2 150315996#3 150315996#4 150315996#5 133955171#0 133955171#1 133955171#2 89670097#5 89670083#0 89670083#1 89670083#2 89670083#3 89670083#4 89670083#5 89670075#6 89670075#0 89670075#1 89670076 89671191#6 89671191#7 89671191#0 89671191#1 89671191#2 89671191#3 -189074#0 -189074#1"/>
    </vehicle>
    <vehicle id="9" depart="9.00">
        <route edges="23415906#1 23415909#0 31362181#0 31362181#1 77731255 32009163#1 53064986 53064987 53064980 53064982 35778504 35778460#0 35778460#1 35778191 36073102#0 36073102#1 83373614#0 83373614#1 23202979#6 23202979#7 23202979#8 23202979#0 23202979#1 23202979#2 150315996#0 150315996#1 150315996#2 150315996#3 150315996#4 150315996#5 133955171#0 133955171#1 133955171#2 89670097#5 89670083#0 89670083#1 89670083#2 89670083#3 89670083#4 89670083#5 89670075#6 89670075#0 89670075#1 89670076 89671191#6 42413552 42413557 42413556#0 42413556#1 89671173 133955174#1 133955174#2 134649547#0 134649547#1 134649547#2 134649547#3 134649563 134649543#1 134649556#0 -134649556#0"/>
    </vehicle>
    <vehicle id="10" depart="10.00">
        <route edges="43534213#2 150187623#5 42527009 -186485#10 -186485#11 -186442 -42527008#3 99010872 150077582 150077583 150077581 150077611#1 150077611#2 99000837#0 99000837#1 99000839#0 99000839#1 99000839#2 99000839#3 99000839#4 43535789#3 43535789#4 23161419#0 99000832 99000841#6 99000828#0 99000828#1 99000828#2 99000828#3 99000828#4 99000844 -36281#0 -36281#1 23161420#3 35773489#0 35773489#1 35773489#2 35773489#3 35773489#4 35773489#5 35773489#6 35773489#7 35773489#8 35773489#9 35773489#10 35773489#11 35773489#12 35773489#13 35773489#14 35773489#15 35773489#16 35773489#17 35773489#18 23162021#1 23162021#2 23051248#8 23051248#0 23051248#1 23162018 23162019#0 23162019#1 23162019#2 35915136#6 10023438 10080059 10023204#1 10086722#1 10086722#2 35900338 72456715 10028184#0 10028184#1 10028184#2 146546030#0 146546030#1 146546034 35901833#0 35901833#1 35901598#0 35901598#1 35901598#2 35901598#3 35901598#4 75503615 10056934 75503614 75503611#0 75503611#1 -75503608 75503612 10032034 10080610 10080608 35835163#0 35835163#1 35835163#2 35835163#3 35835163#4 35835163#5 35835240 35835241#0 35835241#1 35835241#2 35835241#3 72438809 72438808#0 72438808#1 10022938 72438805#1 72438805#2 72438805#3 35786733 -36501#0"/>
    </vehicle>
    <vehicle id="11" depart="11.00">
        <route edges="72670073#0 -74484400 72670154#2 72670154#3 35778726#3 35778726#4 35778742#0 35778742#1 75003627#3 -75003628#0 -139015367#9 -139015367#8 -139015367#7 -139015367#6 -139015367#5 -139015367#4 -139015367#3 -139015367#2 -139015367#1 -139015367#0 31982117#0 31982117#1 139015379#2 139015379#3 139015379#4 139015382 139015378#4 139015378#5 139015378#0 139015383#0 139015383#1 -36823#0 -36823#1 -36823#2 -36823#3 31540844#0 31540844#1 98847185#0 76829343 -36811#0 76829342#0 76829342#1 10023254#0 10023254#1 10023254#2 10023254#3 10023254#4 10023254#5 10023254#6 10023254#7 10023254#8 10023254#9 35842037 27131330#0 27131330#1 27131330#2 27131330#3 30098104#0 30098104#1 10080007 28732312 -29400961 28732314 29400542#2 37111019 37111018#0 37111018#1 23388057 23388055 95098875 37111014 37111015 27110816 27110818#0 37111012 -37549#3 -37551 -37363 --37367#0 -37365 --37355#2 --37355#1 --37371#3"/>
    </vehicle>
    <vehicle id="12" depart="12.00">
        <route edges="93279697#0 93279697#1 93279703 93279691#1 93279684 31509564#1 31509564#2 31509564#3 10052000#0 10052000#1 112560106 112560107 48858913#3 27244546#0 27244546#1 27244546#2 48858912 29077773#4 29077773#5 86431002 -86431009#3 -86431009#2 -86431009#1 -86431009#0 86431004 29400542#1 29400542#2 37111019 37111018#0 23387818#0 -37753 -37749#1 -37745#2 -37743 -37755 -37739 35977751 36809853#1 61413253#0 61413253#1 35834694#0 -37723 -37725 35834694#2 35770064#0 35770064#1 36058795 36809830#0 35769323#0 35769323#1"/>
    </vehicle>
    <vehicle id="13" depart="13.00">
        <route edges="-134704445#0 43300802#1 43300802#2 43300802#3 133536280 133536279#4 23051053#6 23051053#0 23051053#1 31482905 60048012#2 60048036 60048024#4 31362034 60048029#0 60048029#1 60048029#2 60048029#3 26804026 60048052#1 60048052#2 60048052#3 60048052#4 33846771#0 33846771#1 42402238#3 41446067 41446068 41446073 41446074#0 150084533#0 134629786 150313528#3 150313528#4 150313528#5 150313528#6 150313528#7 150313528#8 150313528#9 150313528#0 -36769 77603362 77603368#0 77603368#1 77603368#2 77603368#3 77603368#4 150077576#2 150077576#3 150077576#4 150077576#5 77603368#6 77603368#7 -186939 45406829#4 45406829#5 45406829#6 -187095 150187613#1 150187613#2 150187600#1 150187600#2 150187600#3 -184586#0 -184586#1 -184586#2 -184586#3 --187379#8"/>
    </vehicle>
    <vehicle id="14" depart="14.00">
        <route edges="34473250#5 34473250#6 34473250#7 34473250#8 34473250#9 34473250#10 30098092#3 30098092#4 30098092#5 30098092#6 30098092#7 42431310#0 42431310#1 42431310#2 42431310#3 42431310#4 42431310#5 42431310#6 42431310#7 42431310#8 42431310#9 72438805#0 72438805#1 72438805#2 72438805#3 35786733 -36501#0 -36501#1 -36501#2 -36501#3 -36501#4 35786732 23203021#0 23203021#1 23203021#2 27594170#0 27594170#1 27594170#2 27594170#3 27594170#4 27594170#5 -10080608 -10080610 -10032034 -75503612 75503608 10080612#0 10080612#1 61494208 166301879#0 166301879#1 166301879#2 166301879#3 23051252#0 23051252#1 23051252#2 23051252#3 23051252#4 23051252#5 35901826 23162040 10070449 35901640 -10028184#2 -10028184#1 -10028184#0 10051733 72456721 10023236#0 10023236#1 10023236#2 35914948 -36755#0 -36755#1 23161466#0 77727765#0 77727765#1 77727765#2 77727765#3 77727765#4 -36755#5 -36755#6 -36755#7 -36755#8 -36755#9 27234343#5 27234343#6 27234343#7 27234343#8 -36401 -36371#0 -36371#1 45409832 45409833 23202978 30098093 32009160 32009308 32009309 32009163#0 32009163#1 53064986 53064987 53064980 53064982 35778504 35778460#0 35778460#1 35778191 36073102#0 36073102#1 83373614#0 83373614#1 23202979#6 23202979#7 23202979#8 23202979#0 23202979#1 23202979#2 150315996#0 150315996#1 150315996#2 150315996#3 150315996#4 150315996#5 133955171#0 133955171#1 133955171#2 89670097#5 89670083#0 89670083#1 89670083#2 89670083#3 89670083#4 89670083#5 89670075#6 89670075#0 89670075#1 89670076 89671191#6 42413552 42413557 42413556#0 42413556#1 89671173 133955174#1 133955174#2 134649547#0 134649547#1 134649547#2 134649547#3 134649547#4 134649566#0 134649566#1 134649566#2 134649558 42413512#0 42413512#1 42413512#2 134649543#0"/>
    </vehicle>
    <vehicle id="15" depart="15.00">
        <route edges="--37865 -37867#1 --37869#1 --37871 -36202263#3 -36202263#2 -36202263#1 -36202263#0 35842431#0 35842431#1 35842430 35842451#0 35842383#0 35842383#1 35777715#0 35777715#1 10023310#0 10023310#1 10023310#2 35777690#0 35777690#1 10051302#0 10051302#1 35855767#0 35850111#1 35850111#2 35850111#3 28821579#0 28821579#1 28821579#2 28821579#3 28821579#4 10022932#0 10022932#1 28821581#0 30098103#1 30098103#2 30098105#0 30098105#1 10031823 35842036 100275054#0 100275056#3 100275056#4 100275056#5 100275056#6 100275054#2 100275054#3"/>
    </vehicle>
    <vehicle id="16" depart="16.00">
        <route edges="-76826091#2 76826091#2 76826091#3 77362943#1 32257970#0 32257970#1 32257970#2 32257970#3 32257970#4 99009662#3 99009662#4 99009662#5 -36747#0 -36747#1 -36747#2 -36747#3 -36747#4 -36747#5 -36747#6 -36747#7 -36747#8 -36747#9 -36735 99009671#0 99009671#1 99009671#2 -36773#0 -36773#1 53590479#0 53590479#1 53590479#2 53590479#3 58610413 99189121 23161423#2 23161423#3 23161420#0 23161420#1 23161420#2 23161420#3 23161420#4 149032231 149032234#0 149032234#1 10024731 77609169#0 77609169#1 77609169#2 27234343#3 27234343#4 27234343#5 27234343#6 77609168#0 77609168#1 98696994#0 98696994#1 98697007#0 98697007#1 98696999"/>
    </vehicle>
    <vehicle id="17" depart="17.00">
        <route edges="--37291#1 -37291#1 --37293#1 --37293#0 --37295 -37297#1 -37309 -37275#3 --37315#1 --37319#1 --37319#0 -37801#0 -37801#1 -37801#2 35777660#5 35777660#6 35777660#7 35777660#0 35777660#1 -37807 -37809#0 -37809#1 -37809#2 -37809#3 35860181 100164042 -36501#2 -36501#3 -36501#4 35786732 23203021#0 23203021#1 23203021#2 27594170#0 27594170#1 27594170#2 27594170#3 27594170#4 27594170#5 -10080608 -10080610 -10032034 -75503612 75503608 10080612#0 10080612#1 61494208 166301879#0 166301879#1 166301879#2 166301879#3 23051252#0 23051252#1 23051252#2 23051252#3 23051252#4 23051252#5 35901826 23162040 10070449 35901640 -10028184#2 -10028184#1 -10028184#0 10051733 72456721 10023236#0 10023236#1 10023236#2 35914969#0 27611432 149953114 100142984#1"/>
    </vehicle>
    <vehicle id="18" depart="18.00">
        <route edges="151162061 35846723#3 35852993#2 35852993#3 35853797 35833467#0 35833467#1 35833466 10080132#0 10080132#1 10080132#2 10080112#0 10080112#1 10080112#2 10080112#3 10080100 10080070#0 10080070#1 10080070#2 10080070#3 10080070#4 10080070#5 10080070#6 10080070#7 10023031 10023307#0 10023307#1 10023307#2 10023307#3 98847255#0 98847255#1 98847255#2 98847255#3 98847255#4 -98847186#4 35801295#0 35801295#1 -36317 -36485#1 -36485#2 -36485#3 -36485#4 -36485#5 77727787 -36473#0 -36473#1 -36473#2 -36473#3 -36473#4 -36473#5 -36473#6 -36473#7 -36473#8 -36473#9 -36473#10 -36473#11 77609174#8 77609174#0 77609174#1 77609174#2 77611427#0 77611427#1 77611427#2 77611427#3 77611427#4 4059989#7 4059989#8 4059989#0 4059989#1 4059989#2 4059989#3 4059989#4 4059989#5 77611431#0 --36483 --36481#0"/>
    </vehicle>
    <vehicle id="19" depart="19.00">
        <route edges="35801115#0 35801115#1 37048828#3 37048828#4 37048828#5 37048828#6 37048828#0 37048828#1 35801118#0 35801118#1 27234363#0 27234363#1 27234363#2 27234363#3 133537076#0 133537076#1 133537076#2 133537076#3 133537076#4 58881221#2 58881221#3 58881221#4 53632305#0 53632305#1 146534984#5 146534981#2 146534981#3 146534981#4 146534981#5 146534981#6 146534981#7 146534981#8 146534981#9 146534981#10 146534981#11 146534981#12 146534981#13 35962646#0 35962646#1 23161423#0 23161423#1 23161423#2 23161423#3 23161420#0 23161420#1 23161420#2 23161420#3 23161420#4 149032231 149032234#0 149032234#1 10024731 77609169#0 77609169#1 77609169#2 27234343#3 27234343#4 27234343#5 27234343#6 27234343#7 27234343#8 -36401 -36371#0 -36371#1 45409832 45409833 23202978 30098093 32009160 32009308 32009309 32009163#0 32009163#1 53064986 53064987 53064980 53064982 35778504 35778460#0 89665901 89665904 35778196#8 35778196#9 35778196#0 35778157#2 35778157#1 35778157#0 35778130#5 35778130#0 -35778619#2 -35789574#2 35792627#0 50544023#1 35792507#1 35787481#1"/>
    </vehicle>
    <vehicle id="21" depart="21.00">
        <route edges="-37275#0 -37275#1 -37275#2 -37275#3 --37315#1 --37319#1 --37319#0 -37801#0 -37801#1 -37801#2 35777660#5 35777660#6 35777660#7 35777660#0 35777660#1 -37807 -37809#0 -37809#1 -37809#2 -37809#3 35860181 100164042 -36501#2 -36501#3 -36501#4 35786732 23203021#0 23203021#1 23203021#2 27594170#0 27594170#1 27594170#2 27594170#3 27594170#4 27594170#5 -10080608 -10080610 -10032034 -75503612 75503608 10080612#0 10080612#1 61494208 166301879#0 166301879#1 166301879#2 166301879#3 23051252#0 23051252#1 23051252#2 23051252#3 23051252#4 23051252#5 35901826 23162040 10070449 35901640 -10028184#2 -10028184#1 -10028184#0 10051733 72456721 10023236#0 10023236#1 10023236#2 35914948 -36755#0 -36755#1 23161466#0 77727765#0 77727765#1 77727765#2 77727765#3 77727765#4 -36755#5 -36755#6 -36755#7 -36755#8 -36755#9 27234343#5 27234343#6 27234343#7 27234343#8 -36401 -36371#0 -36371#1 45409832 45409833 23202978 30098093 32009160 32009308 32009309 32009163#0 32009163#1 53064986 53064987 53064980 53064982 35778504 35778460#0 35778460#1 35778191 36073102#0 36073102#1 83373614#0 83373614#1 23202979#6 89668363#0 89668363#1 89668349#0 89668349#1 89668349#2 89668393#0 89668393#1 89668416#1 89668416#2 89668416#3 151987919#0 151987919#1 89668394#0 89668394#1 89668331 89668402#0 89668402#1 89668402#2 139315482 89668328#5 89668328#0 89668328#1 89668328#2 89668328#3 89668342"/>
    </vehicle>
    <vehicle id="22" depart="22.00">
        <route edges="-36095#0 -36095#1 -35842044#0 -35842043 -10052034 -10080418#0 100275080#1 100275080#2 100275064#0 100275064#1 100275064#2 100275064#3 100275064#4 100275056#5 100275056#6 100275054#2 100275054#3 100275054#4 100275054#5 100275054#6 100275054#7 100275054#8 35787071#6 35787071#7 35787071#0 35787071#1 100275054#10 100275054#11 37170105 37170099 37170102 23415906#1 23415909#0 31362181#0 23161463 32009307#1 32009161 32009162 83373630 30098097"/>
    </vehicle>
    <vehicle id="23" depart="23.00">
        <route edges="-37351#0 -37351#1 -37351#2 -37351#3 --37353#4 --37353#3 --37353#2 -37357 -37367#2 -37365 --37355#2 --37355#1 --37371#3 --37373 -37377 35999946#0 35999946#1 35999946#2 35999946#3 35999617#3 35999617#0 35999509#0 35999509#1 72438805#2 72438805#3 35786733 -36501#0 -36501#1 -36501#2 -36501#3 -36501#4 35786732 23203021#0 23203021#1 23203021#2 27594170#0 27594170#1 27594170#2 27594170#3 27594170#4 27594170#5 -10080608 -10080610 -10032034 -75503612 75503608 10080612#0 10080612#1 61494208 166301879#0 166301879#1 166301879#2 166301879#3 23051252#0 23051252#1 23051252#2 23051252#3 23051252#4 23051252#5 35901826 23162040 10070449 35901640 -10028184#2 -10028184#1 -10028184#0 10051733 72456721 10023236#0 10023236#1 10023236#2 35914948 -36755#0 -36755#1 23161466#0 77727765#0 77727765#1 77727765#2 77727765#3 77727765#4 -36755#5 -36755#6 -36755#7 -36755#8 -36755#9 27234343#5 27234343#6 27234343#7 27234343#8 -36401 -36371#0 -36371#1 45409832 45409833 23202978 30098093 32009160 32009308 32009309 32009163#0 32009163#1 53064986 53064987 53064980 53064982 35778504 35778460#0 35778460#1 35778191 36073102#0 36073102#1 83373614#0 83373614#1 23202979#6 89668363#0 89668363#1 89668349#0 89668349#1 89668349#2 89668393#0 89668393#1 89668416#1 89668416#2 89668416#3 151987919#0 151987919#1 89668394#0 89668394#1 89668394#2 89668394#3 89668406#0 89668406#1 89668406#2"/>
    </vehicle>
    <vehicle id="24" depart="24.00">
        <route edges="35801192#6 35801192#7 35801192#8 -36797 98847196 98847179 98847188 98847176 98847197 98847180#0 98847180#1 98847180#2 98847180#3 98847180#4 98847180#5 98847180#6 98847180#7 77609179#1 77609179#2 77609179#3 77609179#4 77609179#5 100292541#0 100292541#1 100294139#0 100294139#1 -36463#0 77609177#0 77609177#1 77609177#2 27234343#8 -36401 27110815 45409828 31362266#0 31362266#1 -36351 150084509#1 23415910 23415907#0 23415907#1 86419214 86419212 150093158 150093152#0"/>
    </vehicle>
    <vehicle id="25" depart="25.00">
        <route edges="89668402#1 89668402#2 139315482 89668328#5 89668328#0 89668328#1 139315478#0 139315478#1 139315478#2 89668387 77363661#4 77363661#5 77363664#0 77363664#1 77363664#2 77363664#3 77363653#0 77363653#1 77363653#2"/>
    </vehicle>
    <vehicle id="26" depart="26.00">
        <route edges="37111016 37111013 95098872 39215893 39215894#0 39215894#1 37111017 37111020#0 37111020#1 37111020#2 23415974#0 23415974#1 23415971#0 23415971#1 86429243 86429242 28211325 28211326 93279665#0 93279665#1 77478665 77478659 150093154 150093160 150093150#0 150093150#1 86419213 86419217 23415906#0 23415906#1 23415909#0 23415909#1 23415909#2 150084513 150084524 41446071 41446072 41446069 41446070#0 76826144 76826091#3 77362943#1 77362943#2 -150077593 -150077595#1 -150077595#0 -150077574#0 76826111 99010864#1 99015522 99015526#0 99015526#1 99010866#0"/>
    </vehicle>
    <vehicle id="27" depart="27.00">
        <route edges="53590479#2 53590479#3 53590479#4 23051262#4 35962646#1 -36771#0 -36771#1 -36771#2 -36771#3 -36771#4 -36771#5 -36771#6 -36771#7 -36771#8 -36771#9 -36771#10 -36771#11 27593742#7 27593742#6 27593742#5 27593742#4 27593742#3 27593742#2 27593742#1 27593742#0 10023081#0 10023081#1 10023081#2 10023087#1 10023087#2 10023400 23162031#0 23162031#1 42431911#0 42431911#1 42431911#2 35902785#0 35902785#1 35902785#2 35902785#3 23051254#0 23051254#1 23051254#2 75503611#0 75503611#1 -75503608 75503612 10032034 10080610 10080608 35835163#0 35835163#1 35835163#2 35835163#3 35835163#4 35835163#5 35835240 35835241#0 35835241#1 35835241#2 35835241#3 72438809 72438808#0 72438808#1 72438808#2 35988000 -42431310#9 -42431310#8 -42431310#7 -42431310#6 -42431310#5 -42431310#4 -42431310#3 -42431310#2 -42431310#1 -42431310#0 -30098092#7 -30098092#6 -30098092#5 -30098092#4 -30098092#3 -30098092#2 -30098092#1 -30098092#0 -35770336 -61429998#5 -61429998#4 -61429998#3 -61429998#2 -61429998#1 -61429998#0 -35981575#1 -35981575#0 -34611168#7 -34611168#6 -34611168#5 -34611168#4 -34611168#3 -34611168#2 34435138#0 34435138#1 34435138#2 34435138#3 -35977881#3 -35977881#2 -35977881#1 -35977881#0 35977881#0"/>
    </vehicle>
    <vehicle id="28" depart="28.00">
        <route edges="-150091949#1 -150091937#0 150091941 133606358 133606353 133606355 133606352 133606354 42402253#0 42402253#1 4049784#4 4049784#0 4049784#1 48492238#0 48492238#1 133410054 42998755 86344927 42998800 42998801 42998632#5 42998632#0 42998632#1 42998632#2 42999365 37111025#2 37111025#3 37111025#4 26993014#0 86402205 86402214 86402209 41446070#4 42402237 42402235#0 31508758 49847306 49600701#0 45410397#3"/>
    </vehicle>
    <vehicle id="29" depart="29.00">
        <route edges="42402238#1 42402238#2 42402238#3 41446067 41446068 41446073 41446074#0 41446074#1 150084518 150084509#0 150084509#1 23415910 23415907#0 23415907#1 86419214 86419212 150093158 150093152#0 93279697#0 93279697#1 93279703 93279691#1 93279684 31509564#1 31509564#2 31509564#3 10052000#0 10052000#1 112560106 112560107 48858913#3 27244546#0 27244546#1 27244546#2 48858912 29077773#4 29077773#5 86431002 -86431009#3 -86431009#2 -86431009#1 86431009#1"/>
    </vehicle>
    <vehicle id="30" depart="30.00">
        <route edges="37111023 150015402 29985646 27197750#0 27197750#1 27197750#2 27234340#0 27234340#1 35838664 26576763 86344931 86344919#1 86344919#2 86344919#3 37111024 37111025#0 37048880 133409869 42998632#0 42998632#1 42998632#2 42998632#3 42998752 42998798 42998799 -133410051 -133410054 -133410053 48492239#0 48492239#1 48492239#2 48492239#3 4049784#3 42402251 42413117#2 42413117#3 42413224 42413180#1 42413320#0 42413512#0 42413512#1 42413512#2 134649543#0 134649543#1 134649543#2 134649543#3 134649543#4 133955174#4 133955174#0 -89671173 89671202 89671205 89671198 89671191#0 89671191#1 89671191#2 89671191#3 89671191#4 89670089 133955182#0 133955182#1 89670075#3 89670075#4 89670075#5 89670075#6 89670075#0 89670095 -60359605 -93207819#2 -93207819#1 -93207819#0 93207798#1 93207798#2 93207798#3 93207798#4 -60359606#1 -60359606#0 43530822 60359608#0 76561691#0 76561691#1 76561691#2 76560641#5 76560641#0 76560641#1 76560646 76561568#3 76561568#0 -76562146#1 -76562146#0"/>
    </vehicle>
    <vehicle id="31" depart="31.00">
        <route edges="100275064#0 100275064#1 100275064#2 100275064#3 100275064#4 100275056#5 100275056#6 100275054#2 100275054#3 100275054#4 100275054#5 100275054#6 100275054#7 100275054#8 35787071#6 35787071#7 35787071#0 35787071#1 100275054#10 100275054#11 37170105 37170099 37170102 23415906#1 23415909#0 31362181#0 31362181#1 77731255 32009163#1 53064986 53064987 53064980 53064982 35778504 35778460#0 35778460#1 35778191 36073102#0 36073102#1 83373614#0 83373614#1 23202979#6 23202979#7 23202979#8 23202979#0 23202979#1 23202979#2 150315996#0 150315996#1 150315996#2 150315996#3 150315996#4 150315996#5 133955171#0 133955171#1 133955171#2 89670097#5 89670083#0 89670083#1 89670083#2 -188507#0 -188507#1 --188502#2 -188500"/>
    </vehicle>
    <vehicle id="32" depart="32.00">
        <route edges="34611179#1 -181954#0 -181954#1 61429998#4 61429998#5 34437263#0 34437263#1 34437263#2 34437263#3 34437263#4 34471515#0 34471515#1 34471515#2 34471515#3 34471515#4 34471515#5 35823521#0 35823521#1 35823313#5 35823313#6 35823313#0 10080010#0 34437181#1 42720593#1 35998199 35998181#0 35998181#1 35998181#2 26974167 26974165 37111016 37111013 95098872 39215893 39215894#0 39215894#1 37111017 37111020#0 29400960 33847713 33847714 29400961 -28732312 -10080007 -30098104#1 -30098104#0 30098103#0 30098103#1 30098103#2 30098105#0 30098105#1 10031823 35842036 100275054#0 100275056#3 100275056#4 100275056#5 100275056#6 100275054#2 100275054#3 100275054#4 35833578#3 35833578#4 35833582#0 140709680#0 -140709677 -140709669"/>
    </vehicle>
    <vehicle id="33" depart="33.00">