<?xml version="1.0" encoding="UTF-8"?>
<routes xmlns:xsi="http://www.w3.org/2001/XMLSchema-instance"
 xsi:noNamespaceSchemaLocation="http://sumo.sf.net/xsd/routes_file.xsd">

   <vTypeDistribution id="typedist01">
      <vType id="truck" accel="0.6" decel="3.5" sigma="0.5" minGap="1.0" length="4.5" maxSpeed="11.11" speedDev="0.05" impatience="0" color="0,1,0" guiShape="truck" probability="0.10" emissionClass="HDV_3_3" />
      <vType id="wagon" accel="0.7" decel="4.0" sigma="0.5" minGap="1.0" length="4.3" maxSpeed="13.89" speedDev="0.05" impatience="0" color="0,1,1" guiShape="passenger/wagon" probability="0.15" emissionClass="P_14_12" />
      <vType id="van" accel="0.8" decel="4.5" sigma="0.5" minGap="1.0" length="4.2" maxSpeed="28.0" speedDev="0.05" impatience="0" color="0,0,1" guiShape="passenger/van" probability="0.25" emissionClass="P_14_8" />
      <vType id="sedan" accel="0.9" decel="5.0" sigma="0.5" minGap="1.0" length="3.8" maxSpeed="50.0" speedDev="0.05" impatience="0" color="1,1,0" guiShape="passenger/sedan" probability="0.50" emissionClass="P_7_7" />
   </vTypeDistribution>

    <routeDistribution id="io0010100.trips.xml">
        <route edges="29061820 29061810 29061807 29061818"/>
        <route edges="29061820 29061810 -52073598#6 -52073598#5 -52073598#4 -52073598#3 4447082#0 -52073598#1 -52073598#0 -27245956#3 -27245956#1 -27245956#0 -27245953 -24027327#1 -24027327#0 161357555 197336186#1 197336186#2 164047642#0 164047642#1 164047642#2 70736941"/>
        <route edges="29061820 29061810 -52073598#6 -52073598#5 -52073598#4 -52073598#3 4447082#0 -52073598#1 -52073598#0 -27245956#3 -27245956#1 -27245956#0 -27245953 -24027327#1 -24027327#0 -24944197#1 -24944197#0 24911264#0 24911264#1 24944221 24911219#0 24911219#1 24911252 4941940#4 24911210#1 70736941"/>
        <route edges="29061820 29061810 -52073598#6 -52073598#5 -52073598#4 -52073598#3 4447082#0 -52073598#1 -52073598#0 -27245956#3 -27245956#1 -27245956#0 -27245953 -24027327#1 -24027327#0 -24944197#1 -24944197#0 24911264#0 24911264#1 24944221 24911219#0 24911219#1 83724056 24911210#0 24911210#1 70736941"/>
        <route edges="29061820 29061810 -52073598#6 -52073598#5 -52073598#4 -52073598#3 4447082#0 -52073598#1 -52073598#0 4082034#0 4082034#1 4472356#0 4472356#1 4472356#2 34849332 4472357#0 4472357#1 -34849339#4 52108083 161357556#0 161357556#1 25467965"/>
        <route edges="29061820 29061810 -52073598#6 -52073598#5 -52073598#4 -52073598#3 4447082#0 -52073598#1 -52073598#0 4450686#0 4444157#0 -185528304 24841435#1 4450686#5 138279710#1 138279710#2 4082012#1 -138669#2 -138669#1 8415609#2 5096968#0 5096968#1 5096968#2 5096968#3 61095859 -34849336"/>
        <route edges="29061820 29061810 -52073598#6 -52073598#5 -52073598#4 -52073598#3 4447082#0 -52073598#1 -52073598#0 4450686#0 4444157#0 4444157#1 4444157#2 4444157#3 4444157#4 44864462#4 -8413402#0 17045874#0 8413403#1 8413403#2 8415609#0 8415609#1 8415609#2 5096968#0 5096968#1 5096968#2 5096968#3 61095859 -34849336"/>
        <route edges="29061820 29061810 -52073598#6 -52073598#5 -52073598#4 -52073598#3 4447082#0 -52073598#1 -52073598#0 4450686#0 4450686#1 4450686#2 4450686#3 4450686#5 4450686#6 190627544#3 190627544#4 193465143 193476880#0 193476880#1 -4039896#6 -4039896#5 -4039896#4 -4039896#3 -4039896#2 -4039896#1 -4039896#0 190629451#0 190629451#1 196700690#0 196700690#1 190629450 -156633015 -34849336"/>
        <route edges="29061820 29061810 -52073598#6 -52073598#5 -52073598#4 -52073598#3 -52073598#2 -52073598#1 -52073598#0 -27245956#3 -27245956#1 -27245956#0 -27245953 -24027327#1 -24027327#0 -24944197#1 -24944197#0 24911264#0 24911264#1 24944221 24911219#0 24911219#1 83724056 24911210#0 24911210#1 70736941"/>
        <route edges="29061820 29061810 -52073598#6 -52073598#5 -52073598#4 -52073598#3 -52073598#2 -52073598#1 -52073598#0 -27245956#3 -27245956#1 -27245956#0 -27245953 4082035 138277281 4444147#1 4444147#2 4444147#3 4444147#4 4444147#5 52108083 161357556#0 161357556#1 25467965"/>
        <route edges="29061820 29061810 -52073598#6 -52073598#5 -52073598#4 -52073598#3 -52073598#2 -52073598#1 -52073598#0 4082034#0 4082034#1 4472356#0 4472356#1 4472356#2 34849332 4472357#0 4472357#1 -34849339#4 52108083 161357556#0 161357556#1 25467965"/>
        <route edges="29061820 29061810 -52073598#6 -52073598#5 -52073598#4 -52073598#3 -52073598#2 -52073598#1 -52073598#0 4450686#0 4450686#1 4450686#2 4450686#3 4450686#5 4450686#6 190627544#3 190627544#4 193465143 193476880#0 193476880#1 -4039896#6 -4039896#5 -4039896#4 -4039896#3 -4039896#2 -4039896#1 -4039896#0 190629451#0 190629451#1 196700690#0 196700690#1 190629450 -156633015 -34849336"/>
        <route edges="29061820 29061810 -52073598#6 -52073598#5 53746252#0 53746252#1 53746251#0 53746251#1 53746251#2 4447065#3 4447065#4 4447065#5 59846904#0 4472356#2 34849332 4472357#0 4472357#1 -34849339#4 52108083 -164286216#2 -25468017 25467965"/>
    </routeDistribution>
    <routeDistribution id="io0020100.trips.xml">
        <route edges="34855520 44864452#0 4472306 4472344#5 4472344#0 4472344#1 4472323#0 4472301 -52073598#3 4447082#0 -52073598#1 -52073598#0 4082034#0 4082034#1 4472356#0 4472356#1 4472356#2 34849332 4472357#0 4472357#1 -34849339#4 52108083 161357556#0 161357556#1 25467965"/>
        <route edges="34855520 44864452#0 4472306 4472344#5 4472344#0 4472344#1 4472323#0 4472301 -52073598#3 4447082#0 -52073598#1 -52073598#0 4082034#0 4082034#1 4472356#0 4472356#1 4472356#2 34849332 4472357#0 4472357#1 -34849339#4 52108083 -164286216#2 -25468017 25467965"/>
        <route edges="34855520 44864452#0 4472306 4472344#5 4472344#0 4472344#1 4472323#0 4472301 -52073598#3 -52073598#2 -52073598#1 -52073598#0 4082034#0 4082034#1 4472356#0 4472356#1 4472356#2 34849332 4472357#0 4472357#1 -34849339#4 52108083 161357556#0 161357556#1 25467965"/>
        <route edges="34855520 44864452#0 4472306 4472344#5 4472344#0 4472344#1 4472323#0 4472301 52073598#4 52073598#5 52073598#6 29061807 29061818"/>
        <route edges="34855520 44864452#0 44864452#1 44864452#2 44864452#3 44864452#4 44864452#5 4082012#1 4082012#2 4082012#3 4082012#4 4082012#5 4082012#6 4082012#7 3599144#1 3599144#2 3599144#3 3599144#4 4941940#1 4941940#2 4941940#3 4941940#4 24911210#1 70736941"/>
        <route edges="34855520 44864452#0 44864452#1 44864452#2 44864452#3 44864452#4 44864452#5 44864452#6 193476880#0 193476880#1 190627546 184551793#0 184551793#1 184551793#2 193476875 193465140 190627544#0 190627544#1 4444183 41872851#0 41872851#2 41872851#3 41872851#4 -27245953 4082035 138277281 4444147#1 4444147#2 4444147#3 4444147#4 4444147#5 52108083 161357556#0 161357556#1 25467965"/>
        <route edges="34855520 44864452#0 44864452#1 44864452#2 44864452#3 44864452#4 44864452#5 44864452#6 193476880#0 193476880#1 190627546 184551793#0 184551793#1 184551793#2 193476875 193465140 24911190#0 24911190#1 24911190#2 71505096#0 71505096#1 71505096#2 71505096#3 71505096#4 71505096#5 71505096#6 24944221 24911219#0 24911219#1 24911252 4941940#4 24911210#1 70736941"/>
        <route edges="34855520 44864452#0 44864452#1 44864452#2 44864452#3 44864452#4 44864452#5 44864452#6 193476880#0 193476880#1 190627546 184551793#0 184551793#1 184551793#2 193476875 193465140 24911190#0 24911190#1 24911190#2 71505096#0 71505096#1 71505096#2 71505096#3 71505096#4 71505096#5 71505096#6 24944221 24911219#0 24911219#1 83724056 24911210#0 24911210#1 70736941"/>
        <route edges="34855520 8413403#0 8413403#1 8413403#2 8415609#0 8415609#1 8415609#2 5096968#0 5096968#1 5096968#2 5096968#3 61095859 -34849336"/>
        <route edges="34855520 8413403#0 8413403#1 8413403#2 8415609#0 8415609#1 8415609#2 8415609#3 8415609#4 8415609#5 8415609#6 196700690#0 196700690#1 190629450 -156633015 -34849336"/>
    </routeDistribution>
    <routeDistribution id="io0030100.trips.xml">
        <route edges="138669#0 138669#1 138669#2 31544800 193476880#1 190627546 184551793#0 184551793#1 184551793#2 193476875 193465140 190627544#0 190627544#1 4444183 41872851#0 41872851#2 41872851#3 41872851#4 -27245953 4082035 138277281 4444147#1 4444147#2 4444147#3 4444147#4 4444147#5 52108083 161357556#0 161357556#1 25467965"/>
        <route edges="138669#0 138669#1 138669#2 31544800 193476880#1 190627546 184551793#0 184551793#1 184551793#2 193476875 193465140 24911190#0 24911190#1 24911190#2 71505096#0 71505096#1 71505096#2 71505096#3 71505096#4 71505096#5 71505096#6 24944221 24911219#0 24911219#1 83724056 24911210#0 24911210#1 70736941"/>
        <route edges="138669#0 138669#1 138669#2 4082012#2 4082012#3 4082012#4 4082012#5 4082012#6 4082012#7 3599144#1 3599144#2 3599144#3 3599144#4 4941940#1 4941940#2 4941940#3 4941940#4 24911210#1 70736941"/>
        <route edges="138669#0 138669#1 138669#2 4082012#2 4082012#3 4082012#4 4082012#5 4082012#6 4082012#7 70187668#0 70187668#1 24027319#1 24027319#2 24027319#3 161357555 -27281287 25468063 -24016102#4 -24016102#3 -24016102#2 -24016102#0 -25468017 25467965"/>
        <route edges="138669#0 -8415609#1 26589010 8413410#0 8413410#1 8413410#2 8413410#3 8413402#0 4472306 4472344#5 4472344#0 4472344#1 4472323#0 4472301 -52073598#3 4447082#0 -52073598#1 -52073598#0 4082034#0 4082034#1 4472356#0 4472356#1 4472356#2 34849332 4472357#0 4472357#1 -34849339#4 52108083 161357556#0 161357556#1 25467965"/>
        <route edges="138669#0 -8415609#1 26589010 8413410#0 8413410#1 8413410#2 8413410#3 8413402#0 4472306 4472344#5 4472344#0 4472344#1 4472323#0 4472301 52073598#4 52073598#5 52073598#6 29061807 29061818"/>
        <route edges="138669#0 -8415609#1 -8415609#0 -8413403#2 -8413403#1 -8413403#0 44864452#0 4472306 4472344#5 4472344#0 4472344#1 4472323#0 4472301 52073598#4 52073598#5 52073598#6 29061807 29061818"/>
        <route edges="138669#0 8415609#2 5096968#0 5096968#1 5096968#2 5096968#3 61095859 -34849336"/>
        <route edges="138669#0 8415609#2 8415609#3 5096930#3 5096930#4 5096930#5 5096930#6 138669#2 31544800 193476880#1 190627546 184551793#0 184551793#1 184551793#2 193476875 193465140 24911190#0 24911190#1 24911190#2 71505096#0 71505096#1 71505096#2 71505096#3 71505096#4 71505096#5 71505096#6 24944221 24911219#0 24911219#1 24911252 4941940#4 24911210#1 70736941"/>
        <route edges="138669#0 8415609#2 8415609#3 8415609#4 8415609#5 8415609#6 196700690#0 196700690#1 190629450 -156633015 -34849336"/>
    </routeDistribution>
    <routeDistribution id="io0040100.trips.xml">
        <route edges="34849336 156633015 5096856#0 5096856#1 5096856#2 196700688 196700689 190629451#0 190629451#1 196700690#0 196700690#1 190629450 -156633015 -34849336"/>
        <route edges="34849336 156633015 5096856#0 5096856#1 5096856#2 196700688 196700689 190629451#0 190629451#1 196700690#0 196700690#1 5096971 61095859 -34849336"/>
        <route edges="34849336 156633015 5096856#0 5096856#1 5096856#2 196700688 196700689 190629451#0 190629451#1 -8415609#6 -8415609#5 -8415609#4 -8415609#3 -8415609#2 -8415609#1 26589010 8413410#0 8413410#1 8413410#2 8413410#3 8413402#0 4472306 4472344#5 4472344#0 4472344#1 4472323#0 4472301 52073598#4 52073598#5 52073598#6 29061807 29061818"/>
        <route edges="34849336 156633015 5096856#0 5096856#1 5096856#2 196700688 196700689 4039896#0 4039896#1 4039896#2 4039896#3 4039896#4 4039896#5 4039896#6 190627546 184551793#0 184551793#1 184551793#2 193476875 193465140 190627544#0 190627544#1 4444183 41872851#0 41872851#2 41872851#3 41872851#4 -27245953 4082035 138277281 4444147#1 4444147#2 4444147#3 4444147#4 4444147#5 52108083 161357556#0 161357556#1 25467965"/>
        <route edges="34849336 156633015 5096856#0 5096856#1 5096856#2 196700688 196700689 4039896#0 4039896#1 4039896#2 4039896#3 4039896#4 4039896#5 4039896#6 190627546 184551793#0 184551793#1 184551793#2 193476875 193465140 24911190#0 24911190#1 24911190#2 71505096#0 71505096#1 71505096#2 71505096#3 71505096#4 71505096#5 71505096#6 24944221 24911219#0 24911219#1 24911252 4941940#4 24911210#1 70736941"/>
        <route edges="34849336 156633015 5096856#0 5096856#1 5096856#2 196700688 196700689 4039896#0 4039896#1 4039896#2 4039896#3 4039896#4 4039896#5 4039896#6 190627546 184551793#0 184551793#1 184551793#2 193476875 193465140 24911190#0 24911190#1 24911190#2 71505096#0 71505096#1 71505096#2 71505096#3 71505096#4 71505096#5 71505096#6 24944221 24911219#0 24911219#1 83724056 24911210#0 24911210#1 70736941"/>
        <route edges="34849336 156633015 5096856#0 5096856#1 5096856#2 196700688 196700689 4039896#0 523433 80300418 -5096871 5096930#5 5096930#6 26588610#0 26588610#1 26588610#2 26589107#0 26589107#1 26589107#2 8413402#0 4472306 4472344#5 4472344#0 4472344#1 4472323#0 4472301 52073598#4 52073598#5 52073598#6 29061807 29061818"/>
        <route edges="34849336 156633015 5096856#0 5096856#1 5096856#2 5096875#0 5096875#1 5096875#2 4293922#0 4293933#0 4293933#1 196702206#0 196702206#1 4082012#5 4082012#6 4082012#7 3599144#1 3599144#2 3599144#3 3599144#4 4941940#1 4941940#2 4941940#3 4941940#4 24911210#1 70736941"/>
        <route edges="34849336 156633015 5096856#0 5096856#1 5096856#2 5096875#0 5096875#1 5096875#2 4293922#0 4293933#0 4293933#1 196702206#0 196702206#1 4082012#5 4082012#6 4082012#7 70187668#0 70187668#1 24027319#1 24027319#2 24027319#3 161357555 -27281287 25468063 -24016102#4 -24016102#3 -24016102#2 -24016102#0 -25468017 25467965"/>
    </routeDistribution>
    <routeDistribution id="io0050100.trips.xml">
        <route edges="4039160#0 4039160#1 4293922#0 4293933#0 4293933#1 196702206#0 196702206#1 4082012#5 4082012#6 4082012#7 3599144#1 3599144#2 3599144#3 3599144#4 4941940#1 4941940#2 4941940#3 4941940#4 24911210#1 70736941"/>
        <route edges="4039160#0 4039160#1 4293922#0 4293933#0 4293933#1 196702206#0 196702206#1 4082012#5 4082012#6 4082012#7 4082043#0 4941951#1 34378247#5 5098489#6 14163843 44864462#2 44864462#3 44864462#4 4472306 4472344#5 4472344#0 4472344#1 4472323#0 4472301 52073598#4 52073598#5 52073598#6 29061807 29061818"/>
        <route edges="4039160#0 4039160#1 4293922#0 4293933#0 4293933#1 196702206#0 196702206#1 4082012#5 4082012#6 4082012#7 70187668#0 70187668#1 24027319#1 24027319#2 24027319#3 161357555 -27281287 25468063 -24016102#4 -24016102#3 -24016102#2 -24016102#0 -25468017 25467965"/>
        <route edges="4039160#0 4039160#1 4293922#0 4293933#0 4293933#1 5096872#0 5096872#1 5096872#2 196700689 190629451#0 190629451#1 196700690#0 196700690#1 5096971 61095859 -34849336"/>
        <route edges="4039160#0 4039160#1 79388242#0 4293936#0 4293933#1 196702206#0 196702206#1 31544813 184551793#0 184551793#1 184551793#2 193476875 193465140 190627544#0 190627544#1 4444183 41872851#0 41872851#2 41872851#3 41872851#4 -27245953 4082035 138277281 4444147#1 4444147#2 4444147#3 4444147#4 4444147#5 52108083 161357556#0 161357556#1 25467965"/>
        <route edges="4039160#0 4039160#1 79388242#0 4293936#0 4293933#1 5096872#0 5096872#1 5096872#2 196700689 190629451#0 190629451#1 196700690#0 196700690#1 5096971 61095859 -34849336"/>
        <route edges="4039160#0 4039160#1 79388242#0 4293936#0 4293933#1 5096872#0 5096872#1 5096872#2 196700689 190629451#0 190629451#1 -8415609#6 -8415609#5 -8415609#4 -8415609#3 -8415609#2 -8415609#1 26589010 8413410#0 8413410#1 8413410#2 8413410#3 8413402#0 4472306 4472344#5 4472344#0 4472344#1 4472323#0 4472301 52073598#4 52073598#5 52073598#6 29061807 29061818"/>
        <route edges="4039160#0 4039160#1 79388242#0 4293936#0 4293936#1 62164880#3 4293934 62164880#1 4293940#0 4293943 24915257 -31544817#4 79368448 -4082016 51498241#1 23819963#2 23819963#3 3599144#2 3599144#3 3599144#4 4941940#1 4941940#2 4941940#3 4941940#4 24911210#1 70736941"/>
        <route edges="4039160#0 4039160#1 79388242#0 79388242#1 79388242#2 196702206#0 196702206#1 31544813 184551793#0 184551793#1 184551793#2 193476875 193465140 190627544#0 190627544#1 4444183 41872851#0 41872851#2 41872851#3 41872851#4 -27245953 4082035 138277281 4444147#1 4444147#2 4444147#3 4444147#4 4444147#5 52108083 161357556#0 161357556#1 25467965"/>
        <route edges="4039160#0 4039160#1 79388242#0 79388242#1 79388242#2 196702206#0 196702206#1 31544813 184551793#0 184551793#1 184551793#2 193476875 193465140 190627544#0 190627544#1 4444183 41872851#0 41872851#2 41872851#3 41872851#4 27245956#0 27245956#1 27245956#3 52073598#0 52073598#1 52073598#2 52073598#3 52073598#4 52073598#5 52073598#6 29061807 29061818"/>
        <route edges="4039160#0 4039160#1 79388242#0 79388242#1 79388242#2 196702206#0 196702206#1 31544813 184551793#0 184551793#1 184551793#2 193476875 193465140 24911190#0 24911190#1 24911190#2 71505096#0 71505096#1 71505096#2 71505096#3 71505096#4 71505096#5 71505096#6 24944221 24911219#0 24911219#1 83724056 24911210#0 24911210#1 70736941"/>
        <route edges="4039160#0 4039160#1 79388242#0 79388242#1 79388242#2 5096872#0 5096872#1 5096872#2 196700689 190629451#0 190629451#1 196700690#0 196700690#1 190629450 -156633015 -34849336"/>
        <route edges="4039160#0 4039160#1 79388242#0 79388242#1 79388242#2 5096872#0 5096872#1 5096872#2 196700689 190629451#0 190629451#1 -8415609#6 -8415609#5 -8415609#4 -8415609#3 -8415609#2 -8415609#1 26589010 8413410#0 8413410#1 8413410#2 8413410#3 8413402#0 4472306 4472344#5 4472344#0 4472344#1 4472323#0 4472301 52073598#4 52073598#5 52073598#6 29061807 29061818"/>
    </routeDistribution>
    <routeDistribution id="io0060100.trips.xml">
        <route edges="-83934453 -51498241#7 -51498241#6 -51498241#5 -4293956#6 -4293956#5 24028711#0 24028711#1 4293951#2 4293944#4 4293944#1 62164880#0 62164880#1 4293939#0 4293939#1 5096872#0 5096872#1 5096872#2 196700689 190629451#0 190629451#1 196700690#0 196700690#1 190629450 -156633015 -34849336"/>
        <route edges="-83934453 -51498241#7 -51498241#6 -51498241#5 -4293956#6 -4293956#5 24028711#0 24028711#1 4293951#2 4293944#4 4293944#1 62164880#0 62164880#1 4293939#0 4293939#1 5096872#0 5096872#1 5096872#2 196700689 190629451#0 190629451#1 196700690#0 196700690#1 5096971 61095859 -34849336"/>
        <route edges="-83934453 -51498241#7 -51498241#6 -51498241#5 4293956#7 24654957#0 24654957#1 24654957#2 5098489#2 4941940#1 4941940#2 4941940#3 4941940#4 24911210#1 70736941"/>
        <route edges="-83934453 -51498241#7 -51498241#6 -51498241#5 4293956#7 24654957#0 24654957#1 69325369#5 69325369#6 69325369#7 69114043#0 69114043#1 4941940#1 4941940#2 4941940#3 4941940#4 24911210#1 70736941"/>
        <route edges="-83934453 -51498241#7 -51498241#6 -51498241#5 4293956#7 4293992#4 4293992#5 4293992#6 4293992#7 4293992#8 3599144#4 4941940#1 4941940#2 4941940#3 4941940#4 24911210#1 70736941"/>
        <route edges="-83934453 -51498241#7 -51498241#6 -51498241#5 -51498241#4 -51498241#3 4293946 69674564#1 69674564#2 24931213 4293944#1 62164880#0 62164880#1 4293939#0 4293939#1 5096872#0 5096872#1 5096872#2 196700689 190629451#0 190629451#1 196700690#0 196700690#1 5096971 61095859 -34849336"/>
        <route edges="-83934453 -51498241#7 -51498241#6 -51498241#5 -51498241#4 -51498241#3 -51498241#2 23819963#2 23819963#3 5098489#6 14163843 44864462#2 44864462#3 44864462#4 4472306 4472344#5 4472344#0 4472344#1 4472323#0 4472301 52073598#4 52073598#5 52073598#6 29061807 29061818"/>
        <route edges="-83934453 -51498241#7 -51498241#6 -51498241#5 -51498241#4 -51498241#3 -51498241#2 23819963#2 40795060#3 -31544845 4082012#7 70187668#0 70187668#1 24027319#1 24027319#2 24027319#3 161357555 -27281287 25468063 -24016102#4 -24016102#3 -24016102#2 -24016102#0 -25468017 25467965"/>
        <route edges="-83934453 -51498241#7 -51498241#6 -51498241#5 -51498241#4 -51498241#3 -51498241#2 -51498241#1 -51498241#0 -31544845 -24931206 184551793#2 193476875 193465140 190627544#0 190627544#1 4444183 41872851#0 41872851#2 41872851#3 41872851#4 -27245953 4082035 138277281 4444147#1 4444147#2 4444147#3 4444147#4 4444147#5 52108083 161357556#0 161357556#1 25467965"/>
        <route edges="-83934453 -51498241#7 -51498241#6 -51498241#5 -51498241#4 -51498241#3 -51498241#2 -51498241#1 -51498241#0 -31544845 -24931206 184551793#2 193476875 193465140 190627544#0 190627544#1 4444183 41872851#0 41872851#2 41872851#3 41872851#4 27245956#0 27245956#1 27245956#3 52073598#0 52073598#1 52073598#2 52073598#3 52073598#4 52073598#5 52073598#6 29061807 29061818"/>
    </routeDistribution>
    <routeDistribution id="io0070100.trips.xml">
        <route edges="4293992#0 4293992#1 4293992#2 4293992#3 24654957#0 24654957#1 24654957#2 5098489#2 4941940#1 4941940#2 4941940#3 4941940#4 24911210#1 -164047642#2 -164047642#1 -164047642#0 -197336186#2 -197336186#1 -27281287 25468063 -24016102#4 -24016102#3 -24016102#2 -24016102#0 -25468017 25467965"/>
        <route edges="4293992#0 4293992#1 4293992#2 4293992#3 24654957#0 24654957#1 24654957#2 5098489#2 4941940#1 4941940#2 4941940#3 4941940#4 24911210#1 70736941"/>
        <route edges="4293992#0 4293992#1 4293992#2 4293992#3 24654957#0 24654957#1 69325369#5 69325369#6 69325369#7 69114043#0 69114043#1 4941940#1 4941940#2 4941940#3 4941940#4 24911210#1 70736941"/>
        <route edges="4293992#0 4293992#1 4293992#2 4293992#3 -4293956#7 -51498241#4 -51498241#3 4293946 69674564#1 69674564#2 24931213 4293944#1 62164880#0 62164880#1 4293939#0 4293939#1 5096872#0 5096872#1 5096872#2 196700689 190629451#0 190629451#1 196700690#0 196700690#1 5096971 61095859 -34849336"/>
        <route edges="4293992#0 4293992#1 4293992#2 4293992#3 -4293956#7 -51498241#4 -51498241#3 -51498241#2 23819963#2 23819963#3 5098489#6 14163843 44864462#2 44864462#3 44864462#4 4472306 4472344#5 4472344#0 4472344#1 4472323#0 4472301 52073598#4 52073598#5 52073598#6 29061807 29061818"/>
        <route edges="4293992#0 4293992#1 4293992#2 4293992#3 4293992#4 4293992#5 4293992#6 4293992#7 4293992#8 3599144#4 4941940#1 4941940#2 4941940#3 4941940#4 24911210#1 70736941"/>
        <route edges="4293992#0 4293992#1 4293992#2 4293992#3 4293992#4 4293992#5 4293992#6 4293992#7 4293992#8 5098489#5 5098489#6 5098489#7 5098489#8 193465140 190627544#0 190627544#1 190627544#2 190627544#3 190627544#4 193465143 193476880#0 193476880#1 -4039896#6 -4039896#5 -4039896#4 -4039896#3 -4039896#2 -4039896#1 -4039896#0 190629451#0 190629451#1 196700690#0 196700690#1 190629450 -156633015 -34849336"/>
        <route edges="4293992#0 4293992#1 4293992#2 4293992#3 4293992#4 4293992#5 4293992#6 4293992#7 4293992#8 5098489#5 5098489#6 5098489#7 5098489#8 193465140 190627544#0 190627544#1 4444183 41872851#0 41872851#2 41872851#3 41872851#4 -27245953 4082035 138277281 4444147#1 4444147#2 4444147#3 4444147#4 4444147#5 52108083 161357556#0 161357556#1 25467965"/>
        <route edges="4293992#0 4293992#1 4293992#2 4293992#3 4293992#4 4293992#5 4293992#6 4293992#7 4293992#8 5098489#5 5098489#6 5098489#7 5098489#8 193465140 190627544#0 190627544#1 4444183 41872851#0 41872851#2 41872851#3 41872851#4 27245956#0 27245956#1 27245956#3 52073598#0 52073598#1 52073598#2 52073598#3 52073598#4 52073598#5 52073598#6 29061807 29061818"/>
        <route edges="4293992#0 4293992#1 4293992#2 4293992#3 4293992#4 4293992#5 4293992#6 4293992#7 4293992#8 5098489#5 5098489#6 5098489#7 70187668#0 70187668#1 70187668#2 41872851#0 41872851#2 41872851#3 41872851#4 -27245953 4082035 138277281 4444147#1 4444147#2 4444147#3 4444147#4 4444147#5 52108083 161357556#0 161357556#1 25467965"/>
        <route edges="4293992#0 4293992#1 4293992#2 4293992#3 4293992#4 4293992#5 4293992#6 4293992#7 4293992#8 5098489#5 5098489#6 5098489#7 70187668#0 70187668#1 70187668#2 41872851#0 41872851#2 41872851#3 41872851#4 27245956#0 27245956#1 27245956#3 52073598#0 52073598#1 52073598#2 52073598#3 52073598#4 52073598#5 52073598#6 29061807 29061818"/>
        <route edges="4293992#0 4293992#1 4293992#2 4293992#3 4293992#4 4293992#5 4294013 34382673 4293946 69674564#1 69674564#2 24931213 4293944#1 62164880#0 62164880#1 4293939#0 4293939#1 5096872#0 5096872#1 5096872#2 196700689 190629451#0 190629451#1 196700690#0 196700690#1 190629450 -156633015 -34849336"/>
        <route edges="4293992#0 4293992#1 4293992#2 4293992#3 4293992#4 4293992#5 4294013 34382673 4293946 69674564#1 69674564#2 24931213 4293944#1 62164880#0 62164880#1 4293939#0 4293939#1 5096872#0 5096872#1 5096872#2 196700689 190629451#0 190629451#1 196700690#0 196700690#1 5096971 61095859 -34849336"/>
    </routeDistribution>
    <routeDistribution id="io0080100.trips.xml">
        <route edges="5098489#0 5098489#1 -24654957#2 69325369#5 69325369#6 24930618 4294013 34382673 4293946 69674564#1 69674564#2 24931213 4293944#1 62164880#0 62164880#1 4293939#0 4293939#1 5096872#0 5096872#1 5096872#2 196700689 190629451#0 190629451#1 196700690#0 196700690#1 190629450 -156633015 -34849336"/>
        <route edges="5098489#0 5098489#1 -24654957#2 69325369#5 69325369#6 24930618 4294013 34382673 4293946 69674564#1 69674564#2 24931213 4293944#1 62164880#0 62164880#1 4293939#0 4293939#1 5096872#0 5096872#1 5096872#2 196700689 190629451#0 190629451#1 196700690#0 196700690#1 5096971 61095859 -34849336"/>
        <route edges="5098489#0 5098489#1 5098489#2 4941940#1 4941940#2 4941940#3 4941940#4 24911210#1 -164047642#2 -164047642#1 -164047642#0 -197336186#2 -197336186#1 -27281287 25468063 -24016102#4 -24016102#3 -24016102#2 -24016102#0 -25468017 25467965"/>
        <route edges="5098489#0 5098489#1 5098489#2 4941940#1 4941940#2 4941940#3 4941940#4 24911210#1 70736941"/>
        <route edges="5098489#0 5098489#1 5098489#2 5098489#3 5098489#4 5098489#5 5098489#6 14163843 44864462#2 44864462#3 44864462#4 4472306 4472344#5 4472344#0 4472344#1 4472323#0 4472301 52073598#4 52073598#5 52073598#6 29061807 29061818"/>
        <route edges="5098489#0 5098489#1 5098489#2 5098489#3 5098489#4 5098489#5 5098489#6 5098489#7 5098489#8 193465140 190627544#0 190627544#1 190627544#2 190627544#3 190627544#4 193465143 193476880#0 193476880#1 -4039896#6 -4039896#5 -4039896#4 -4039896#3 -4039896#2 -4039896#1 -4039896#0 190629451#0 190629451#1 196700690#0 196700690#1 190629450 -156633015 -34849336"/>
        <route edges="5098489#0 5098489#1 5098489#2 5098489#3 5098489#4 5098489#5 5098489#6 5098489#7 5098489#8 193465140 190627544#0 190627544#1 4444183 41872851#0 41872851#2 41872851#3 41872851#4 -27245953 4082035 138277281 4444147#1 4444147#2 4444147#3 4444147#4 4444147#5 52108083 161357556#0 161357556#1 25467965"/>
        <route edges="5098489#0 5098489#1 5098489#2 5098489#3 5098489#4 5098489#5 5098489#6 5098489#7 5098489#8 193465140 190627544#0 190627544#1 4444183 41872851#0 41872851#2 41872851#3 41872851#4 27245956#0 27245956#1 27245956#3 52073598#0 52073598#1 52073598#2 52073598#3 52073598#4 52073598#5 52073598#6 29061807 29061818"/>
        <route edges="5098489#0 5098489#1 5098489#2 5098489#3 5098489#4 5098489#5 5098489#6 5098489#7 70187668#0 70187668#1 70187668#2 138279710#0 138279710#1 138279710#2 4082012#1 -138669#2 -138669#1 8415609#2 5096968#0 5096968#1 5096968#2 5096968#3 61095859 -34849336"/>
        <route edges="5098489#0 5098489#1 5098489#2 5098489#3 5098489#4 5098489#5 5098489#6 5098489#7 70187668#0 70187668#1 70187668#2 41872851#0 41872851#2 41872851#3 41872851#4 -27245953 4082035 138277281 4444147#1 4444147#2 4444147#3 4444147#4 4444147#5 52108083 161357556#0 161357556#1 25467965"/>
        <route edges="5098489#0 5098489#1 5098489#2 5098489#3 5098489#4 5098489#5 5098489#6 5098489#7 70187668#0 70187668#1 70187668#2 41872851#0 41872851#2 41872851#3 41872851#4 27245956#0 27245956#1 27245956#3 52073598#0 52073598#1 52073598#2 52073598#3 52073598#4 52073598#5 52073598#6 29061807 29061818"/>
    </routeDistribution>
    <routeDistribution id="io0090100.trips.xml">
        <route edges="-70736941 -164047642#2 -164047642#1 -164047642#0 -197336186#2 -197336186#1 -161357555 -24027319#3 -24027319#2 -24027319#1 70187668#2 138279710#0 138279710#1 138279710#2 4082012#1 -138669#2 -138669#1 8415609#2 5096968#0 5096968#1 5096968#2 5096968#3 61095859 -34849336"/>
        <route edges="-70736941 -164047642#2 -164047642#1 -164047642#0 -197336186#2 -197336186#1 -161357555 24027327#0 24027327#1 27245953 27245956#0 27245956#1 27245956#3 52073598#0 52073598#1 52073598#2 52073598#3 52073598#4 52073598#5 52073598#6 29061807 29061818"/>
        <route edges="-70736941 -164047642#2 -164047642#1 -164047642#0 -197336186#2 -197336186#1 -197336186#0 164047643 34849339#1 34849339#2 34849339#3 52108083 161357556#0 161357556#1 25467965"/>
        <route edges="-70736941 -164047642#2 -164047642#1 -164047642#0 -197336186#2 -197336186#1 -27281287 25468063 -24016102#4 -24016102#3 -24016102#2 -24016102#0 -25468017 25467965"/>
        <route edges="-70736941 -164047642#2 4942526#0 -8412453 -121491#1 164047642#1 164047642#2 70736941"/>
        <route edges="-70736941 -24911210#1 -24911210#0 24911205 83724048 190627543 -71505096#6 -24944224 34378247#1 34378247#2 -71505096#2 -71505096#1 -71505096#0 -24911190#2 -24911190#1 -24911190#0 190627544#0 190627544#1 190627544#2 190627544#3 190627544#4 193465143 193476880#0 -31544800 -138669#2 26588610#0 26588610#1 26588610#2 26588610#3 26588610#4 26588610#5 8415609#0 8415609#1 8415609#2 5096968#0 5096968#1 5096968#2 5096968#3 61095859 -34849336"/>
        <route edges="-70736941 -24911210#1 -24911210#0 24911205 83724048 190627543 -71505096#6 -71505096#5 -71505096#4 -71505096#3 -71505096#2 -71505096#1 -71505096#0 -24911190#2 -24911190#1 -24911190#0 190627544#0 190627544#1 190627544#2 190627544#3 190627544#4 193465143 193476880#0 193476880#1 -4039896#6 -4039896#5 -4039896#4 -4039896#3 -4039896#2 -4039896#1 -4039896#0 190629451#0 190629451#1 196700690#0 196700690#1 190629450 -156633015 -34849336"/>
        <route edges="-70736941 -24911210#1 -24911210#0 24911205 83724048 20205692 24911219#0 24911219#1 83724056 24911210#0 24911210#1 70736941"/>
        <route edges="-70736941 -24911210#1 -24911210#0 24911205 83724048 24911231#0 24911231#1 24944197#0 24944197#1 24027327#0 24027327#1 27245953 27245956#0 27245956#1 27245956#3 52073598#0 52073598#1 52073598#2 52073598#3 52073598#4 52073598#5 52073598#6 29061807 29061818"/>
    </routeDistribution>
    <routeDistribution id="io0100100.trips.xml">