<?xml version="1.0" encoding="UTF-8"?>

<!-- generated on Mon Dec 30 21:52:17 2013 by SUMO netconvert Version 0.19.0
<?xml version="1.0" encoding="UTF-8"?>

<configuration xmlns:xsi="http://www.w3.org/2001/XMLSchema-instance" xsi:noNamespaceSchemaLocation="http://sumo-sim.org/xsd/netconvertConfiguration.xsd">

    <input>
        <connection-files value="paris.con.xml"/>
        <type-files value="paris.typ.xml"/>
        <osm-files value="paris.osm"/>
    </input>

    <output>
        <output-file value="paris.net.xml"/>
        <output.street-names value="true"/>
        <output.original-names value="true"/>
    </output>

    <projection>
        <proj.utm value="true"/>
    </projection>

    <edge_removal>
        <remove-edges.isolated value="true"/>
    </edge_removal>

    <processing>
        <no-turnarounds value="true"/>
        <geometry.remove value="true"/>
        <junctions.join value="true"/>
        <junctions.join-exclude value="25625757,661227,25625329,25625331,25666980,25666981,25666983,25666984,25626383,25626414,25667136,25934279,25934280,34843116,34843119,368254,34843133,32561070,32561071,2124630292,2124630303,1369651401,367906,367894,788203395,27286669,367904,315257204,315275629,27286681,291590185,34816435,34816437,34816439,34816441,34816443,34816444,34816446,25624042,25624047,270678310,32560668,828134609,27286661,27286662,27286663,27286664,32560719,32560720,25624258,25624259,25624233,25624252,34843129,368322,299017707,568794047,27234843,27252241,27234208,27252242,34816544,34816546,34816547,34816475,34816542"/>
    </processing>

</configuration>
-->

<net version="0.13" xmlns:xsi="http://www.w3.org/2001/XMLSchema-instance" xsi:noNamespaceSchemaLocation="http://sumo-sim.org/xsd/net_file.xsd">

    <location netOffset="-447143.02,-5412678.01" convBoundary="0.00,0.00,2470.29,2166.53" origBoundary="2.279177,48.864904,2.312830,48.884436" projParameter="+proj=utm +zone=31 +ellps=WGS84 +datum=WGS84 +units=m +no_defs"/>

    <edge id=":-12_0" function="internal">
        <lane id=":-12_0_0" index="0" speed="13.89" length="9.52" shape="852.10,795.60 844.04,790.53"/>
        <lane id=":-12_0_1" index="1" speed="13.89" length="9.52" shape="853.86,792.81 845.79,787.74"/>
    </edge>
    <edge id=":-12_2" function="internal">
        <lane id=":-12_2_0" index="0" speed="12.50" length="6.75" shape="853.86,792.81 851.60,790.64 850.86,787.94 851.05,787.15"/>
    </edge>
    <edge id=":-12_8" function="internal">
        <lane id=":-12_8_0" index="0" speed="12.50" length="6.95" shape="851.05,787.15 851.65,784.69 853.95,780.91"/>
    </edge>
    <edge id=":-12_3" function="internal">
        <lane id=":-12_3_0" index="0" speed="12.50" length="5.11" shape="856.58,782.90 855.90,784.14 855.80,785.28 856.29,786.30 857.37,787.22"/>
    </edge>
    <edge id=":-12_4" function="internal">
        <lane id=":-12_4_0" index="0" speed="12.50" length="13.02" shape="856.58,782.90 853.67,786.16 850.91,788.05 848.28,788.58 845.79,787.74"/>
    </edge>
    <edge id=":-12_5" function="internal">
        <lane id=":-12_5_0" index="0" speed="12.50" length="5.37" shape="849.31,782.15 850.54,782.67 851.72,782.63 852.86,782.05 853.95,780.91"/>
    </edge>
    <edge id=":-12_6" function="internal">
        <lane id=":-12_6_0" index="0" speed="13.89" length="9.52" shape="849.31,782.15 857.37,787.22"/>
        <lane id=":-12_6_1" index="1" speed="13.89" length="9.52" shape="847.55,784.95 855.61,790.01"/>
    </edge>
    <edge id=":-14_0" function="internal">
        <lane id=":-14_0_0" index="0" speed="11.11" length="4.53" shape="559.76,745.21 559.25,746.28 559.09,747.35 559.28,748.41 559.82,749.47"/>
    </edge>
    <edge id=":-14_1" function="internal">
        <lane id=":-14_1_0" index="0" speed="11.11" length="4.73" shape="555.91,747.08 557.09,747.33 558.13,747.82 559.04,748.53 559.82,749.47"/>
    </edge>
    <edge id=":-16_0" function="internal">
        <lane id=":-16_0_0" index="0" speed="11.11" length="4.66" shape="541.12,749.70 541.54,748.66 541.68,747.56 541.55,746.40 541.15,745.19"/>
    </edge>
    <edge id=":-16_1" function="internal">
        <lane id=":-16_1_0" index="0" speed="11.11" length="4.65" shape="541.12,749.70 541.77,748.79 542.62,748.09 543.67,747.60 544.91,747.32"/>
    </edge>
    <edge id=":-18_0" function="internal">
        <lane id=":-18_0_0" index="0" speed="12.50" length="6.51" shape="465.66,1344.91 463.83,1344.00 462.19,1343.51 460.74,1343.45 459.49,1343.81"/>
    </edge>
    <edge id=":-18_1" function="internal">
        <lane id=":-18_1_0" index="0" speed="13.89" length="7.05" shape="465.80,1340.68 459.49,1343.81"/>
        <lane id=":-18_1_1" index="1" speed="13.89" length="7.05" shape="464.34,1337.72 458.02,1340.85"/>
    </edge>
    <edge id=":-4_0" function="internal">
        <lane id=":-4_0_0" index="0" speed="8.33" length="5.93" shape="1301.05,1572.59 1306.00,1575.86"/>
    </edge>
    <edge id=":-4_1" function="internal">
        <lane id=":-4_1_0" index="0" speed="8.33" length="4.98" shape="1301.63,1576.93 1302.59,1575.94 1303.64,1575.44 1304.78,1575.41 1306.00,1575.86"/>
    </edge>
    <edge id=":-6_0" function="internal">
        <lane id=":-6_0_0" index="0" speed="8.33" length="9.53" shape="1224.21,1512.39 1231.73,1518.25"/>
    </edge>
    <edge id=":-6_1" function="internal">
        <lane id=":-6_1_0" index="0" speed="9.72" length="8.00" shape="1224.21,1512.39 1226.28,1514.25 1227.50,1515.96 1227.87,1517.53 1227.40,1518.96"/>
    </edge>
    <edge id=":-6_2" function="internal">
        <lane id=":-6_2_0" index="0" speed="9.72" length="8.09" shape="1224.64,1517.15 1225.81,1516.12 1227.38,1515.96 1229.35,1516.67 1231.73,1518.25"/>
    </edge>
    <edge id=":135294276_0" function="internal">
        <lane id=":135294276_0_0" index="0" speed="13.89" length="3.94" shape="903.74,1126.14 900.46,1127.22"/>
        <lane id=":135294276_0_1" index="1" speed="13.89" length="3.94" shape="903.19,1122.88 898.97,1124.27"/>
    </edge>
    <edge id=":135294276_2" function="internal">
        <lane id=":135294276_2_0" index="0" speed="13.89" length="4.08" shape="903.65,1125.62 900.46,1127.22"/>
        <lane id=":135294276_2_1" index="1" speed="13.89" length="4.08" shape="903.07,1122.22 898.97,1124.27"/>
    </edge>
    <edge id=":176932324_0" function="internal">
        <lane id=":176932324_0_0" index="0" speed="11.11" length="5.95" shape="879.60,1007.83 878.80,1006.14 877.89,1004.88 876.86,1004.05 875.73,1003.64"/>
    </edge>
    <edge id=":176932324_1" function="internal">
        <lane id=":176932324_1_0" index="0" speed="11.11" length="5.00" shape="884.43,1002.60 883.23,1003.28 882.54,1004.17 882.36,1005.29 882.67,1006.62"/>
    </edge>
    <edge id=":176932324_2" function="internal">
        <lane id=":176932324_2_0" index="0" speed="11.11" length="8.76" shape="884.43,1002.60 875.73,1003.64"/>
    </edge>
    <edge id=":176932548_0" function="internal">
        <lane id=":176932548_0_0" index="0" speed="12.50" length="8.33" shape="974.02,967.10 966.11,969.69"/>
    </edge>
    <edge id=":176932548_1" function="internal">
        <lane id=":176932548_1_0" index="0" speed="13.89" length="9.49" shape="974.02,967.10 964.64,965.65"/>
        <lane id=":176932548_1_1" index="1" speed="13.89" length="9.49" shape="974.54,963.84 965.15,962.39"/>
    </edge>
    <edge id=":176932548_3" function="internal">
        <lane id=":176932548_3_0" index="0" speed="12.50" length="9.20" shape="967.86,952.33 975.58,957.33"/>
    </edge>
    <edge id=":176932548_4" function="internal">
        <lane id=":176932548_4_0" index="0" speed="11.11" length="5.76" shape="967.86,952.33 971.60,956.71"/>
    </edge>
    <edge id=":176932548_5" function="internal">
        <lane id=":176932548_5_0" index="0" speed="12.50" length="6.16" shape="967.86,952.33 972.11,956.79"/>
    </edge>
    <edge id=":176932548_9" function="internal">
        <lane id=":176932548_9_0" index="0" speed="11.11" length="16.57" shape="971.60,956.71 972.21,957.42 973.36,962.01 971.33,966.10 966.11,969.69"/>
    </edge>
    <edge id=":176932548_10" function="internal">
        <lane id=":176932548_10_0" index="0" speed="12.50" length="14.52" shape="972.11,956.79 972.99,957.72 974.25,961.19 971.64,962.75 965.15,962.39"/>
    </edge>
    <edge id=":176932548_6" function="internal">
        <lane id=":176932548_6_0" index="0" speed="13.89" length="9.51" shape="966.18,955.87 975.58,957.33"/>
        <lane id=":176932548_6_1" index="1" speed="13.89" length="9.51" shape="965.67,959.13 975.06,960.59"/>
    </edge>
    <edge id=":176932548_8" function="internal">
        <lane id=":176932548_8_0" index="0" speed="12.50" length="8.44" shape="965.67,959.13 971.94,960.77 973.27,962.19"/>
    </edge>
    <edge id=":176932548_11" function="internal">
        <lane id=":176932548_11_0" index="0" speed="12.50" length="11.83" shape="973.27,962.19 974.11,963.08 972.16,966.05 966.11,969.69"/>
    </edge>
    <edge id=":176932687_0" function="internal">
        <lane id=":176932687_0_0" index="0" speed="11.11" length="6.42" shape="794.22,1076.45 789.98,1071.63"/>
    </edge>
    <edge id=":176932687_1" function="internal">
        <lane id=":176932687_1_0" index="0" speed="11.11" length="6.37" shape="794.22,1076.45 793.87,1075.10 794.24,1073.84 795.31,1072.67 797.09,1071.58"/>
    </edge>
    <edge id=":176932687_2" function="internal">
        <lane id=":176932687_2_0" index="0" speed="11.11" length="4.99" shape="792.94,1070.17 793.71,1071.30 794.66,1071.91 795.79,1072.00 797.09,1071.58"/>
    </edge>
    <edge id=":176932867_0" function="internal">
        <lane id=":176932867_0_0" index="0" speed="11.11" length="6.20" shape="889.34,1023.61 890.12,1029.77"/>
    </edge>
    <edge id=":176932867_1" function="internal">
        <lane id=":176932867_1_0" index="0" speed="11.11" length="4.91" shape="884.68,1028.89 885.79,1028.15 886.42,1027.22 886.58,1026.11 886.27,1024.82"/>
    </edge>
    <edge id=":176932867_2" function="internal">
        <lane id=":176932867_2_0" index="0" speed="11.11" length="6.26" shape="884.68,1028.89 886.59,1028.19 888.12,1028.10 889.30,1028.62 890.12,1029.77"/>
    </edge>
    <edge id=":176933851_0" function="internal">
        <lane id=":176933851_0_0" index="0" speed="11.11" length="5.34" shape="83.11,882.58 79.94,878.29"/>
    </edge>
    <edge id=":176933851_1" function="internal">
        <lane id=":176933851_1_0" index="0" speed="11.11" length="5.00" shape="84.88,879.04 79.94,878.29"/>
    </edge>
    <edge id=":176935312_0" function="internal">
        <lane id=":176935312_0_0" index="0" speed="11.11" length="6.24" shape="215.23,1010.01 210.75,1005.67"/>
    </edge>
    <edge id=":176935312_1" function="internal">
        <lane id=":176935312_1_0" index="0" speed="11.11" length="5.26" shape="215.52,1005.64 214.20,1006.40 212.97,1006.66 211.81,1006.41 210.75,1005.67"/>
    </edge>
    <edge id=":176935440_0" function="internal">
        <lane id=":176935440_0_0" index="0" speed="11.11" length="7.02" shape="335.26,918.54 328.87,921.44"/>
    </edge>
    <edge id=":176935440_1" function="internal">
        <lane id=":176935440_1_0" index="0" speed="11.11" length="7.45" shape="335.26,918.54 327.89,917.45"/>
    </edge>
    <edge id=":1961533514_0" function="internal">
        <lane id=":1961533514_0_0" index="0" speed="11.11" length="11.46" shape="1090.01,1261.49 1091.66,1264.23 1092.97,1266.40 1094.26,1268.57 1095.90,1271.32"/>
    </edge>
    <edge id=":1961533514_1" function="internal">
        <lane id=":1961533514_1_0" index="0" speed="11.11" length="10.73" shape="1090.01,1261.49 1091.39,1264.22 1092.14,1266.84 1092.26,1269.34 1091.75,1271.73"/>
    </edge>
    <edge id=":1961533514_2" function="internal">
        <lane id=":1961533514_2_0" index="0" speed="11.11" length="10.86" shape="1088.64,1270.63 1090.05,1267.96 1091.73,1267.19 1093.68,1268.31 1095.90,1271.32"/>
    </edge>
    <edge id=":1961534892_0" function="internal">
        <lane id=":1961534892_0_0" index="0" speed="11.11" length="10.55" shape="1039.27,1427.34 1037.13,1425.16 1035.63,1423.53 1034.18,1421.85 1032.21,1419.51"/>
    </edge>
    <edge id=":1961534892_1" function="internal">
        <lane id=":1961534892_1_0" index="0" speed="11.11" length="9.57" shape="1039.27,1427.34 1037.46,1425.16 1036.38,1423.00 1036.03,1420.86 1036.41,1418.74"/>
    </edge>
    <edge id=":1961534892_2" function="internal">
        <lane id=":1961534892_2_0" index="0" speed="11.11" length="9.84" shape="1039.52,1419.84 1038.29,1422.03 1036.66,1422.70 1034.63,1421.86 1032.21,1419.51"/>
    </edge>
    <edge id=":21292970_0" function="internal">
        <lane id=":21292970_0_0" index="0" speed="13.89" length="5.02" shape="1125.43,1055.49 1124.14,1055.01 1123.01,1055.06 1122.03,1055.63 1121.22,1056.73"/>
    </edge>
    <edge id=":21292970_1" function="internal">
        <lane id=":21292970_1_0" index="0" speed="13.89" length="7.54" shape="1128.63,1049.75 1121.37,1045.28"/>
        <lane id=":21292970_1_1" index="1" speed="13.89" length="7.54" shape="1130.23,1046.87 1123.31,1042.61"/>
        <lane id=":21292970_1_2" index="2" speed="13.89" length="7.54" shape="1131.82,1044.00 1125.24,1039.94"/>
        <lane id=":21292970_1_3" index="3" speed="13.89" length="7.54" shape="1133.42,1041.13 1127.18,1037.26"/>
        <lane id=":21292970_1_4" index="4" speed="13.89" length="7.54" shape="1135.01,1038.27 1129.11,1034.59"/>
        <lane id=":21292970_1_5" index="5" speed="13.89" length="7.54" shape="1136.61,1035.40 1131.05,1031.92"/>
    </edge>
    <edge id=":21292970_7" function="internal">
        <lane id=":21292970_7_0" index="0" speed="13.89" length="12.36" shape="1118.31,1055.17 1118.84,1053.82 1118.87,1052.61 1118.43,1051.55 1117.50,1050.62"/>
        <lane id=":21292970_7_1" index="1" speed="13.89" length="12.36" shape="1118.31,1055.17 1119.55,1052.55 1120.15,1050.48 1120.11,1048.95 1119.43,1047.95"/>
        <lane id=":21292970_7_2" index="2" speed="13.89" length="12.36" shape="1118.31,1055.17 1120.26,1051.29 1121.42,1048.35 1121.79,1046.34 1121.37,1045.28"/>
        <lane id=":21292970_7_3" index="3" speed="13.89" length="12.36" shape="1118.31,1055.17 1120.98,1050.02 1122.70,1046.21 1123.47,1043.74 1123.31,1042.61"/>
        <lane id=":21292970_7_4" index="4" speed="13.89" length="12.36" shape="1118.31,1055.17 1121.69,1048.76 1123.97,1044.08 1125.16,1041.14 1125.24,1039.94"/>
        <lane id=":21292970_7_5" index="5" speed="13.89" length="12.36" shape="1118.31,1055.17 1122.41,1047.49 1125.25,1041.95 1126.84,1038.54 1127.18,1037.26"/>
    </edge>
    <edge id=":21292971_0" function="internal">
        <lane id=":21292971_0_0" index="0" speed="12.50" length="6.18" shape="1049.57,1190.69 1049.23,1191.85 1049.30,1193.21 1049.79,1194.77 1050.70,1196.52"/>
    </edge>
    <edge id=":21292971_1" function="internal">
        <lane id=":21292971_1_0" index="0" speed="13.89" length="6.73" shape="1049.57,1190.69 1046.44,1196.65"/>
    </edge>
    <edge id=":21292971_2" function="internal">
        <lane id=":21292971_2_0" index="0" speed="13.89" length="6.73" shape="1043.52,1195.11 1046.65,1189.15"/>
    </edge>
    <edge id=":21292971_3" function="internal">
        <lane id=":21292971_3_0" index="0" speed="12.50" length="5.86" shape="1043.52,1195.11 1045.07,1193.10 1046.79,1192.67 1048.11,1193.47"/>
    </edge>
    <edge id=":21292971_4" function="internal">
        <lane id=":21292971_4_0" index="0" speed="12.50" length="4.04" shape="1048.11,1193.47 1048.66,1193.81 1050.70,1196.52"/>
    </edge>
    <edge id=":21292972_0" function="internal">
        <lane id=":21292972_0_0" index="0" speed="11.11" length="6.12" shape="962.67,1361.07 960.96,1360.11 959.55,1359.88 958.44,1360.40 957.61,1361.65"/>
    </edge>
    <edge id=":21292972_1" function="internal">
        <lane id=":21292972_1_0" index="0" speed="11.11" length="9.44" shape="962.67,1361.07 954.85,1355.77"/>
    </edge>
    <edge id=":21292972_2" function="internal">
        <lane id=":21292972_2_0" index="0" speed="12.50" length="7.96" shape="962.67,1361.07 960.55,1359.30 959.25,1357.65 958.76,1356.10 959.09,1354.66"/>
    </edge>
    <edge id=":21292972_3" function="internal">
        <lane id=":21292972_3_0" index="0" speed="12.50" length="6.99" shape="962.01,1356.22 957.61,1361.65"/>
    </edge>
    <edge id=":21292972_4" function="internal">
        <lane id=":21292972_4_0" index="0" speed="12.50" length="8.07" shape="962.01,1356.22 960.94,1357.34 959.39,1357.64 957.36,1357.12 954.85,1355.77"/>
    </edge>
    <edge id=":21292974_0" function="internal">
        <lane id=":21292974_0_0" index="0" speed="12.50" length="4.95" shape="910.31,1604.40 910.19,1604.11 909.88,1603.24 909.36,1601.78 908.65,1599.73"/>
    </edge>
    <edge id=":21292974_1" function="internal">
        <lane id=":21292974_1_0" index="0" speed="13.89" length="0.31" shape="910.31,1604.40 910.74,1604.22"/>
        <lane id=":21292974_1_1" index="1" speed="13.89" length="0.31" shape="909.20,1601.29 909.34,1601.23"/>
    </edge>
    <edge id=":21292974_3" function="internal">
        <lane id=":21292974_3_0" index="0" speed="12.50" length="4.95" shape="908.65,1599.73 906.99,1595.07"/>
    </edge>
    <edge id=":21292974_4" function="internal">
        <lane id=":21292974_4_0" index="0" speed="11.11" length="0.10" shape="908.65,1599.73 908.65,1599.73"/>
    </edge>
    <edge id=":21292974_5" function="internal">
        <lane id=":21292974_5_0" index="0" speed="12.50" length="20.74" shape="908.65,1599.73 915.97,1597.12 918.52,1596.50 916.32,1597.87 909.34,1601.23"/>
    </edge>
    <edge id=":21292974_6" function="internal">
        <lane id=":21292974_6_0" index="0" speed="13.89" length="0.31" shape="906.56,1595.25 906.99,1595.07"/>
        <lane id=":21292974_6_1" index="1" speed="13.89" length="0.31" shape="907.95,1598.24 908.09,1598.18"/>
    </edge>
    <edge id=":21292974_8" function="internal">
        <lane id=":21292974_8_0" index="0" speed="12.50" length="1.65" shape="907.95,1598.24 908.65,1599.73"/>
    </edge>
    <edge id=":21292975_0" function="internal">
        <lane id=":21292975_0_0" index="0" speed="13.89" length="11.29" shape="766.90,1656.57 763.74,1657.70 761.58,1658.47 759.41,1659.22 756.25,1660.34"/>
        <lane id=":21292975_0_1" index="1" speed="13.89" length="11.29" shape="765.79,1653.47 762.64,1654.59 760.47,1655.36 758.31,1656.11 755.15,1657.22"/>
    </edge>
    <edge id=":21292975_2" function="internal">
        <lane id=":21292975_2_0" index="0" speed="12.50" length="10.62" shape="753.25,1646.88 755.63,1647.81 758.14,1648.18 760.78,1648.00 763.56,1647.25"/>
    </edge>
    <edge id=":21292975_3" function="internal">
        <lane id=":21292975_3_0" index="0" speed="12.50" length="16.13" shape="753.25,1646.88 758.09,1649.99 760.02,1652.75 759.04,1655.17 755.15,1657.22"/>
    </edge>
    <edge id=":21292975_4" function="internal">
        <lane id=":21292975_4_0" index="0" speed="13.89" length="11.26" shape="752.96,1651.00 756.11,1649.89 758.26,1649.14 760.42,1648.38 763.56,1647.25"/>
        <lane id=":21292975_4_1" index="1" speed="13.89" length="11.26" shape="754.05,1654.11 757.21,1653.00 759.37,1652.25 761.53,1651.48 764.68,1650.36"/>
    </edge>
    <edge id=":21659950_0" function="internal">
        <lane id=":21659950_0_0" index="0" speed="12.50" length="7.51" shape="1185.38,814.53 1185.27,817.13 1185.65,819.04 1186.51,820.28 1187.85,820.84"/>
    </edge>
    <edge id=":21659950_1" function="internal">
        <lane id=":21659950_1_0" index="0" speed="13.89" length="9.17" shape="1185.38,814.53 1184.43,823.58"/>
        <lane id=":21659950_1_1" index="1" speed="13.89" length="9.17" shape="1182.11,814.14 1181.14,823.32"/>
    </edge>
    <edge id=":21659950_3" function="internal">
        <lane id=":21659950_3_0" index="0" speed="12.50" length="8.09" shape="1171.26,819.29 1172.86,818.99 1174.11,817.89 1175.01,816.01 1175.55,813.35"/>
    </edge>
    <edge id=":21659950_4" function="internal">
        <lane id=":21659950_4_0" index="0" speed="11.11" length="16.67" shape="1171.26,819.29 1175.26,819.54 1179.57,819.89 1183.87,820.34 1187.85,820.84"/>
    </edge>
    <edge id=":21659950_5" function="internal">
        <lane id=":21659950_5_0" index="0" speed="12.50" length="3.17" shape="1171.26,819.29 1174.42,819.60"/>
    </edge>
    <edge id=":21659950_9" function="internal">
        <lane id=":21659950_9_0" index="0" speed="12.50" length="8.34" shape="1174.42,819.60 1175.69,819.73 1178.81,820.54 1180.63,821.74 1181.14,823.32"/>
    </edge>
    <edge id=":21659950_6" function="internal">
        <lane id=":21659950_6_0" index="0" speed="12.50" length="8.44" shape="1174.56,822.79 1174.55,820.20 1174.07,818.10 1173.13,816.48 1171.71,815.34"/>
    </edge>
    <edge id=":21659950_7" function="internal">
        <lane id=":21659950_7_0" index="0" speed="13.89" length="9.43" shape="1174.56,822.79 1175.55,813.35"/>
        <lane id=":21659950_7_1" index="1" speed="13.89" length="9.43" shape="1177.85,823.05 1178.83,813.74"/>
    </edge>
    <edge id=":21659957_0" function="internal">
        <lane id=":21659957_0_0" index="0" speed="11.11" length="9.69" shape="1152.80,1152.10 1143.19,1150.87"/>
    </edge>
    <edge id=":21659957_1" function="internal">
        <lane id=":21659957_1_0" index="0" speed="12.50" length="5.21" shape="1152.80,1152.10 1151.45,1151.80 1150.52,1151.11 1150.04,1150.03 1149.98,1148.55"/>
    </edge>
    <edge id=":21659957_2" function="internal">
        <lane id=":21659957_2_0" index="0" speed="12.50" length="5.23" shape="1146.05,1154.55 1146.00,1153.17 1145.50,1152.10 1144.56,1151.33 1143.19,1150.87"/>
    </edge>
    <edge id=":21659957_3" function="internal">
        <lane id=":21659957_3_0" index="0" speed="13.89" length="6.37" shape="1146.05,1154.55 1146.69,1148.24"/>
        <lane id=":21659957_3_1" index="1" speed="13.89" length="6.37" shape="1149.33,1154.91 1149.98,1148.55"/>
    </edge>
    <edge id=":21660039_0" function="internal">
        <lane id=":21660039_0_0" index="0" speed="12.50" length="5.07" shape="1084.44,1131.57 1083.09,1131.14 1081.92,1131.22 1080.94,1131.79 1080.13,1132.88"/>
    </edge>
    <edge id=":21660039_1" function="internal">
        <lane id=":21660039_1_0" index="0" speed="11.11" length="9.69" shape="1084.44,1131.57 1075.96,1126.89"/>
    </edge>
    <edge id=":21660039_2" function="internal">
        <lane id=":21660039_2_0" index="0" speed="12.50" length="8.03" shape="1084.44,1131.57 1081.97,1130.17 1080.45,1128.73 1079.86,1127.27 1080.20,1125.78"/>
    </edge>
    <edge id=":21660039_3" function="internal">
        <lane id=":21660039_3_0" index="0" speed="13.89" length="6.27" shape="1083.10,1127.35 1080.13,1132.88"/>
    </edge>
    <edge id=":21660039_4" function="internal">
        <lane id=":21660039_4_0" index="0" speed="12.50" length="4.82" shape="1083.10,1127.35 1082.04,1128.46 1080.50,1128.75 1078.83,1128.32"/>
    </edge>
    <edge id=":21660039_7" function="internal">
        <lane id=":21660039_7_0" index="0" speed="12.50" length="3.22" shape="1078.83,1128.32 1078.47,1128.23 1075.96,1126.89"/>
    </edge>
    <edge id=":21660039_5" function="internal">
        <lane id=":21660039_5_0" index="0" speed="12.50" length="5.17" shape="1077.22,1131.32 1077.69,1130.03 1077.63,1128.86 1077.05,1127.81 1075.96,1126.89"/>
    </edge>
    <edge id=":21660039_6" function="internal">
        <lane id=":21660039_6_0" index="0" speed="13.89" length="6.29" shape="1077.22,1131.32 1080.20,1125.78"/>
    </edge>
    <edge id=":21660043_0" function="internal">
        <lane id=":21660043_0_0" index="0" speed="13.89" length="6.27" shape="1088.24,842.07 1085.46,836.48"/>
        <lane id=":21660043_0_1" index="1" speed="13.89" length="6.27" shape="1091.21,840.62 1088.40,834.99"/>
    </edge>
    <edge id=":21660043_2" function="internal">
        <lane id=":21660043_2_0" index="0" speed="12.50" length="4.54" shape="1091.21,840.62 1091.10,839.02 1092.31,837.32 1093.00,836.82"/>
    </edge>
    <edge id=":21660043_9" function="internal">
        <lane id=":21660043_9_0" index="0" speed="12.50" length="6.49" shape="1093.00,836.82 1094.81,835.52 1098.63,833.62"/>
    </edge>
    <edge id=":21660043_3" function="internal">
        <lane id=":21660043_3_0" index="0" speed="12.50" length="5.22" shape="1094.28,831.99 1095.10,833.17 1096.10,833.84 1097.28,833.99 1098.63,833.62"/>
    </edge>
    <edge id=":21660043_4" function="internal">
        <lane id=":21660043_4_0" index="0" speed="13.89" length="6.38" shape="1094.28,831.99 1097.14,837.72"/>
        <lane id=":21660043_4_1" index="1" speed="13.89" length="6.38" shape="1091.34,833.49 1094.17,839.17"/>
    </edge>
    <edge id=":21660043_6" function="internal">
        <lane id=":21660043_6_0" index="0" speed="12.50" length="5.04" shape="1084.07,840.68 1085.20,839.88 1085.81,838.91 1085.90,837.78 1085.46,836.48"/>
    </edge>
    <edge id=":21660043_7" function="internal">
        <lane id=":21660043_7_0" index="0" speed="11.11" length="16.18" shape="1084.07,840.68 1087.57,838.89 1091.30,837.04 1095.04,835.24 1098.63,833.62"/>
    </edge>
    <edge id=":21660043_8" function="internal">
        <lane id=":21660043_8_0" index="0" speed="12.50" length="3.12" shape="1084.07,840.68 1086.90,839.38"/>
    </edge>
    <edge id=":21660043_10" function="internal">
        <lane id=":21660043_10_0" index="0" speed="12.50" length="7.88" shape="1086.90,839.38 1087.94,838.90 1090.92,838.06 1093.00,838.15 1094.17,839.17"/>
    </edge>
    <edge id=":21660044_0" function="internal">
        <lane id=":21660044_0_0" index="0" speed="13.89" length="6.33" shape="1023.76,903.47 1018.43,900.09"/>
        <lane id=":21660044_0_1" index="1" speed="13.89" length="6.33" shape="1025.54,900.70 1020.18,897.30"/>
    </edge>
    <edge id=":21660044_2" function="internal">
        <lane id=":21660044_2_0" index="0" speed="12.50" length="4.57" shape="1025.54,900.70 1024.62,899.39 1024.72,897.29 1025.04,896.47"/>
    </edge>
    <edge id=":21660044_9" function="internal">
        <lane id=":21660044_9_0" index="0" speed="12.50" length="6.47" shape="1025.04,896.47 1025.85,894.41 1028.00,890.73"/>
    </edge>
    <edge id=":21660044_3" function="internal">
        <lane id=":21660044_3_0" index="0" speed="12.50" length="5.01" shape="1023.69,891.71 1024.94,892.26 1026.07,892.28 1027.09,891.77 1028.00,890.73"/>
    </edge>
    <edge id=":21660044_4" function="internal">
        <lane id=":21660044_4_0" index="0" speed="13.89" length="6.39" shape="1023.69,891.71 1029.10,895.14"/>
        <lane id=":21660044_4_1" index="1" speed="13.89" length="6.39" shape="1021.94,894.50 1027.32,897.92"/>
    </edge>
    <edge id=":21660044_6" function="internal">
        <lane id=":21660044_6_0" index="0" speed="12.50" length="5.14" shape="1019.49,904.50 1020.02,903.20 1020.02,902.03 1019.49,900.99 1018.43,900.09"/>
    </edge>
    <edge id=":21660044_7" function="internal">
        <lane id=":21660044_7_0" index="0" speed="11.11" length="16.18" shape="1019.49,904.50 1021.50,901.12 1023.66,897.57 1025.87,894.04 1028.00,890.73"/>
    </edge>
    <edge id=":21660044_8" function="internal">
        <lane id=":21660044_8_0" index="0" speed="12.50" length="3.15" shape="1019.49,904.50 1021.21,901.86"/>
    </edge>
    <edge id=":21660044_10" function="internal">
        <lane id=":21660044_10_0" index="0" speed="12.50" length="7.90" shape="1021.21,901.86 1021.83,900.92 1023.91,898.63 1025.74,897.63 1027.32,897.92"/>
    </edge>
    <edge id=":21660045_0" function="internal">
        <lane id=":21660045_0_0" index="0" speed="13.89" length="6.72" shape="1001.29,971.50 994.67,970.41"/>
        <lane id=":21660045_0_1" index="1" speed="13.89" length="6.72" shape="1001.84,968.25 995.20,967.15"/>
    </edge>
    <edge id=":21660045_2" function="internal">
        <lane id=":21660045_2_0" index="0" speed="12.50" length="4.80" shape="1001.84,968.25 1000.32,967.37 999.47,965.38 999.43,964.50"/>
    </edge>
    <edge id=":21660045_9" function="internal">
        <lane id=":21660045_9_0" index="0" speed="12.50" length="6.48" shape="999.43,964.50 999.31,962.27 999.82,958.05"/>
    </edge>
    <edge id=":21660045_3" function="internal">
        <lane id=":21660045_3_0" index="0" speed="12.50" length="5.01" shape="996.24,960.63 997.60,960.65 998.65,960.23 999.39,959.36 999.82,958.05"/>
    </edge>
    <edge id=":21660045_4" function="internal">
        <lane id=":21660045_4_0" index="0" speed="13.89" length="6.79" shape="996.24,960.63 1002.95,961.74"/>
        <lane id=":21660045_4_1" index="1" speed="13.89" length="6.79" shape="995.72,963.89 1002.40,964.99"/>
    </edge>
    <edge id=":21660045_6" function="internal">
        <lane id=":21660045_6_0" index="0" speed="12.50" length="5.54" shape="997.84,974.21 997.73,972.75 997.16,971.63 996.14,970.85 994.67,970.41"/>
    </edge>
    <edge id=":21660045_7" function="internal">
        <lane id=":21660045_7_0" index="0" speed="11.11" length="16.29" shape="997.84,974.21 998.17,970.28 998.63,966.11 999.19,961.95 999.82,958.05"/>
    </edge>
    <edge id=":21660045_8" function="internal">
        <lane id=":21660045_8_0" index="0" speed="12.50" length="3.24" shape="997.84,974.21 998.25,971.00"/>
    </edge>
    <edge id=":21660045_10" function="internal">
        <lane id=":21660045_10_0" index="0" speed="12.50" length="8.07" shape="998.25,971.00 998.38,969.93 999.32,966.97 1000.66,965.32 1002.40,964.99"/>
    </edge>
    <edge id=":21660273_0" function="internal">
        <lane id=":21660273_0_0" index="0" speed="12.50" length="7.68" shape="1462.33,1032.94 1459.76,1032.78 1458.62,1033.32 1458.90,1034.56 1460.60,1036.49"/>
    </edge>
    <edge id=":21660273_1" function="internal">
        <lane id=":21660273_1_0" index="0" speed="13.89" length="26.88" shape="1462.33,1032.94 1455.39,1031.87 1449.04,1030.89 1442.69,1029.89 1435.76,1028.77"/>