<?xml version="1.0" encoding="UTF-8"?>
<routes xmlns:xsi="http://www.w3.org/2001/XMLSchema-instance"
 xsi:noNamespaceSchemaLocation="http://sumo.sf.net/xsd/routes_file.xsd">

   <vTypeDistribution id="typedist01">
      <vType id="truck" accel="0.6" decel="3.5" sigma="0.5" minGap="1.0" length="4.5" maxSpeed="11.11" speedDev="0.05" impatience="0" color="0,1,0" guiShape="truck" probability="0.10" emissionClass="HDV_3_3" /> 
      <vType id="wagon" accel="0.7" decel="4.0" sigma="0.5" minGap="1.0" length="4.3" maxSpeed="13.89" speedDev="0.05" impatience="0" color="0,1,1" guiShape="passenger/wagon" probability="0.15" emissionClass="P_14_12" />
      <vType id="van" accel="0.8" decel="4.5" sigma="0.5" minGap="1.0" length="4.2" maxSpeed="28.0" speedDev="0.05" impatience="0" color="0,0,1" guiShape="passenger/van" probability="0.25" emissionClass="P_14_8" /> 
      <vType id="sedan" accel="0.9" decel="5.0" sigma="0.5" minGap="1.0" length="3.8" maxSpeed="50.0" speedDev="0.05" impatience="0" color="1,1,0" guiShape="passenger/sedan" probability="0.50" emissionClass="P_7_7" />
   </vTypeDistribution>

    <routeDistribution id="io0010100.trips.xml">
        <route edges="37294340 147686223#1 176112926#1 32937789 34057952#0 34057952#1 34057952#2 240451922#0 240451922#1 240451922#2 32975881 169742746#0 24889513#0 24889513#1 4475559#3 37911426#1"/>
        <route edges="37294340 147686223#1 176112926#1 32937789 34057952#0 34057952#1 34057952#2 240451922#0 240451922#1 240451922#2 53356537#1 25178766"/>
        <route edges="37294340 147686223#1 176112926#1 32937789 34057952#0 34057952#1 34057952#2 240451922#0 240451922#1 4611885 -32975880#0 148359938 53356541 4475559#1 4475559#2 4475559#3 37911426#1"/>
        <route edges="37294340 147686223#1 176112926#1 32937789 34057952#0 34057952#1 34057952#2 240451922#0 24986658#0 24986658#1 24986658#2 24986661 4619363#0 4619363#1 4675340#1 4675340#2 4686360#0 4686360#3 4686360#4 4686360#6 36737686#3 36737686#4 36737686#7 36737686#10 36737686#11 228499478"/>
        <route edges="37294340 147686223#1 176112926#1 32937789 34057952#0 34057952#1 34057952#2 34057952#3 34057952#4 24704435#0 4068045#0 4068045#1 4475559#0 4475559#1 4475559#2 4475559#3 37911426#1"/>
        <route edges="37294340 147686223#1 176112926#1 32937789 34057952#0 34057952#1 34057952#2 34057952#3 34057952#4 24704435#0 4619363#0 4619363#1 4675340#1 4675340#2 4686360#0 4686360#3 4686360#4 4686360#6 36737686#3 36737686#4 36737686#7 36737686#10 36737686#11 228499478"/>
        <route edges="37294340 147686223#1 176112926#1 32937789 34057952#0 34057952#1 34057952#2 34057952#3 34057952#4 26472938 34059285 146008683 4526403#1 61745073#1 4675368#0 4675368#2 4675368#3 68647318#0 68647318#1 -4611784#0"/>
        <route edges="37294340 147686223#1 176112926#1 32937789 60825560 34057952#1 34057952#2 240451922#0 240451922#1 240451922#2 53356537#1 25178766"/>
        <route edges="37294340 147686223#1 176112926#1 32937789 60825560 34057952#1 34057952#2 240451922#0 24986658#0 -32975880#1 -32975880#0 148359938 -25036025 24889513#1 4475559#3 37911426#1"/>
        <route edges="37294340 147686223#1 176112926#1 32937789 60825560 34057952#1 34057952#2 34057952#3 34057952#4 24704435#0 4619363#0 4619363#1 4675340#1 4675340#2 4686360#0 4686360#3 4686360#4 4686360#6 36737686#3 36737686#4 36737686#7 36737686#10 36737686#11 228499478"/>
        <route edges="37294340 147686223#1 176112926#1 32937789 60825560 34057952#1 34057952#2 34057952#3 34057952#4 26472938 34059285 146008683 4526403#1 95927111 66071383#0 66071383#1 66071383#2 69409257#1 69409262 -4611784#0"/>
    </routeDistribution>
    <routeDistribution id="io0020100.trips.xml">
        <route edges="-25178767 155069305 53356540#0 53356540#1 23752644#0 23752644#1 37911426#1"/>
        <route edges="-25178767 155069312#0 155069312#1 -148359938 32975880#0 32975880#1 24986658#1 24986658#2 24986661 4619363#0 4619363#1 28807170#0 28807170#1 61745073#0 61745073#1 4675368#0 4675368#2 4675368#3 68647318#0 68647318#1 -4611784#0"/>
        <route edges="-25178767 155069312#0 155069312#1 53356541 155071250#1 4611902 -4619359 4526203#2 4619363#0 4619363#1 28807170#0 68647316#0 36880937#1 66071383#0 66071383#1 66071383#2 69409257#1 69409262 -4611784#0"/>
        <route edges="-25178767 155069312#0 155069312#1 53356541 155071250#1 52158841#0 52158841#1 52158841#2 52158841#3 52158841#4 53357388#0 4894106 245198490 4679304#0 4679304#1 236000457 36737686#7 36737686#10 36737686#11 228499478"/>
        <route edges="-25178767 155069312#0 155069312#1 53356541 155071250#1 52158841#0 52158841#1 52158841#2 52158841#3 52158841#4 53357388#0 4894106 245198490 8007722 4692264 -478373 61639004#1 223666036 34393558 36737686#4 36737686#7 36737686#10 36737686#11 228499478"/>
        <route edges="-25178767 155069312#0 155069312#1 53356541 155071250#1 52158841#0 52158841#1 52158841#2 52158841#3 52158841#4 -68462535 -4611912#1 -4611912#0 8005348 4686360#4 4686360#6 36737686#3 36737686#4 36737686#7 36737686#10 36737686#11 228499478"/>
        <route edges="-25178767 155069312#0 155069312#1 53356541 35373236#2 4526203#0 4526203#1 4526203#2 4619363#0 4619363#1 28807170#0 28807170#1 61745073#0 61745073#1 4675368#0 4675368#2 4675368#3 68647318#0 68647318#1 -4611784#0"/>
        <route edges="-25178767 155069312#0 169742746#0 24889513#0 24889513#1 4475559#3 37911426#1"/>
        <route edges="-25178767 155069312#0 -32975881 53356537#1 25178766"/>
    </routeDistribution>
    <routeDistribution id="io0030100.trips.xml">
        <route edges="4526202#0 -23752644#1 -23752644#0 11342758 24889513#1 4475559#3 37911426#1"/>
        <route edges="4526202#0 -23752644#1 -23752644#0 -53356540#1 -53356540#0 -155069305 25178766"/>
        <route edges="4526202#0 23752644#3 4588059#0 4588059#1 4588059#3 4588059#4 4588059#5 80706109 106820465#0 106819379 4588075#1 168227964 27244587#0 27244587#1 4894106 245198490 8007722 4692264 -478373 61639004#1 223666036 34393558 36737686#4 36737686#7 36737686#10 36737686#11 228499478"/>
        <route edges="4526202#0 4526202#1 35373236#0 35373236#1 155071250#1 4611902 -4619359 4526203#2 4619363#0 4619363#1 28807170#0 68647316#0 36880937#1 66071383#0 66071383#1 66071383#2 69409257#1 69409262 -4611784#0"/>
        <route edges="4526202#0 4526202#1 35373236#0 35373236#1 155071250#1 52158841#0 52158841#1 52158841#2 52158841#3 52158841#4 53357388#0 4894106 245198490 4679304#0 4679304#1 236000457 36737686#7 36737686#10 36737686#11 228499478"/>
        <route edges="4526202#0 4526202#1 35373236#0 35373236#1 155071250#1 52158841#0 52158841#1 52158841#2 52158841#3 52158841#4 53357388#0 4894106 245198490 8007722 4692264 -478373 61639004#1 223666036 34393558 36737686#4 36737686#7 36737686#10 36737686#11 228499478"/>
        <route edges="4526202#0 4526202#1 35373236#0 35373236#1 155071250#1 52158841#0 52158841#1 52158841#2 52158841#3 52158841#4 -68462535 -4611912#1 -4611912#0 8005348 4686360#4 4686360#6 36737686#3 36737686#4 36737686#7 36737686#10 36737686#11 228499478"/>
        <route edges="4526202#0 4526202#1 35373236#0 35373236#1 35373236#2 4526203#0 4526203#1 4526203#2 4619363#0 4619363#1 28807170#0 28807170#1 61745073#0 61745073#1 4675368#0 4675368#2 4675368#3 68647318#0 68647318#1 -4611784#0"/>
    </routeDistribution>
    <routeDistribution id="io0040100.trips.xml">
        <route edges="23026124#0 23026124#1 246136583 246136582#0 246136582#1 246136582#2 246136582#3 246136582#4 236000457 228498046#6 228498046#9 228498046#11 --478361 --478365#0 -71089569 -4686363 -68647316#1 36880937#1 66071383#0 66071383#1 66071383#2 69409257#1 69409262 -4611784#0"/>
        <route edges="23026124#0 23026124#1 246136583 246136582#0 246136582#1 246136582#2 246136582#3 246136582#4 236000457 36737686#7 36737686#10 36737686#11 228499478"/>
        <route edges="23026124#0 23026124#1 246136583 246136582#0 246136582#1 246136582#2 246136582#3 246136582#4 30253519 30253522#0 30253522#1 4692273 23969684#1 -4611912#1 -4611912#0 8005348 36737687#3 36737687#4 4611894#1 4611894#2 28807170#0 28807170#1 61745073#0 61745073#1 4675368#0 4675368#2 4675368#3 68647318#0 68647318#1 -4611784#0"/>
        <route edges="23026124#0 23026124#1 246136583 246136582#0 246136582#1 246136582#2 246136582#3 246136582#4 30253519 30253522#0 30253522#1 4692273 23969684#1 53357391 50650808 68462528#0 68462528#1 68462528#2 68462528#3 52158843#0 155070193 53356537#0 53356537#1 25178766"/>
        <route edges="23026124#0 23026124#1 246136583 246136582#0 246136582#1 246136582#2 246136582#3 246136582#4 30253519 30253522#0 30253522#1 4692273 23969684#1 53357391 50650808 68462528#0 68462528#1 68462528#2 68462528#3 52158843#0 4475559#0 4475559#1 4475559#2 4475559#3 37911426#1"/>
        <route edges="23026124#0 23026124#1 246136583 246136582#0 246136582#1 246136582#2 246136582#3 246136582#4 30253519 30253522#0 30253522#1 4692273 23969684#1 53357391 50650808 68462528#0 68462528#1 86384371 68576795#0 68576795#1 68576795#2 -4588059#5 -4588059#4 -4588059#3 -4588059#1 -4588059#0 -23752644#3 37911426#1"/>
        <route edges="23026124#0 23026124#1 246136583 246136582#0 246136582#1 246136582#2 246136582#3 246136582#4 30253519 30253522#0 30253522#1 4692273 32640185#1 --478377#1 --478377#0 4675342#1 4611894#1 4611894#2 28807170#0 28807170#1 61745073#0 61745073#1 4675368#0 4675368#2 4675368#3 68647318#0 68647318#1 -4611784#0"/>
    </routeDistribution>
    <routeDistribution id="io0050100.trips.xml">
        <route edges="308918 228498046#0 228498046#1 228498046#2 228498046#3 228498046#6 228498046#9 228498046#11 36737687#1 36737687#3 36737687#4 4611894#1 4611894#2 28807167#1 28807167#2 4068045#0 4068045#1 155070193 53356537#0 53356537#1 25178766"/>
        <route edges="308918 228498046#0 228498046#1 228498046#2 228498046#3 228498046#6 228498046#9 228498046#11 36737687#1 36737687#3 36737687#4 4611894#1 4611894#2 28807167#1 28807167#2 4068045#0 4068045#1 4475559#0 4475559#1 4475559#2 4475559#3 37911426#1"/>
        <route edges="308918 228498046#0 228498046#1 228498046#2 228498046#3 228498046#6 228498046#9 228498046#11 36737687#1 36737687#3 36737687#4 4611894#1 4611894#2 28807170#0 28807170#1 61745073#0 61745073#1 4675368#0 4675368#2 4675368#3 68647318#0 68647318#1 -4611784#0"/>
        <route edges="308918 228498046#0 228498046#1 228498046#2 228498046#3 228498046#6 228498046#9 228498046#11 --478361 --478365#0 -71089569 -4686363 -68647316#1 36880937#1 66071383#0 66071383#1 66071383#2 69409257#1 69409262 -4611784#0"/>
        <route edges="308918 228498046#0 228498046#1 228498046#2 228498046#3 228498046#6 228498046#9 4692267 -61639004#1 -61639004#0 -4692264 4692273 23969684#1 53357391 50650808 68462528#0 68462528#1 68462528#2 68462528#3 52158843#0 155070193 53356537#0 53356537#1 25178766"/>
        <route edges="308918 228498046#0 228498046#1 228498046#2 228498046#3 228498046#6 228498046#9 4692267 -61639004#1 -61639004#0 -4692264 4692273 23969684#1 53357391 50650808 68462528#0 68462528#1 68462528#2 68462528#3 52158843#0 4475559#0 4475559#1 4475559#2 4475559#3 37911426#1"/>
        <route edges="308918 228498046#0 228498046#1 228498046#2 228498046#3 228498046#6 228498046#9 4692267 -61639004#1 -61639004#0 -4692264 4692273 23969684#1 53357391 50650808 68462528#0 68462528#1 86384371 68576795#0 68576795#1 68576795#2 -4588059#5 -4588059#4 -4588059#3 -4588059#1 -4588059#0 -23752644#3 37911426#1"/>
        <route edges="308918 228498046#0 228498046#1 228498046#2 60826006#1 164674800 27989772 191377893 141233527#3 141233527#4 30184927 -478243 30184955 -478310 -478314 -478316 159155869 -478194 -478198 -4887461#2 -4887461#1 -4887461#0 53357053 69409257#0 69409257#1 69409262 -4611784#0"/>
        <route edges="308918 228498046#0 228498046#1 228498046#2 60826006#1 164674800 27989772 191377893 141233527#3 141233527#4 30184927 -478243 -65425838 -22701539 -4686298 62276481#1 -478332#0 -4887461#2 -4887461#1 -4887461#0 53357053 69409257#0 69409257#1 69409262 -4611784#0"/>
        <route edges="308918 -26828719 228499478"/>
    </routeDistribution>
    <routeDistribution id="io0060100.trips.xml">
        <route edges="141233527#0 141233527#1 141233527#2 141233527#3 141233527#4 30184927 -478243 30184955 -478310 -478314 -478316 159155869 -478194 -478198 -4887461#2 -4887461#1 -4887461#0 53357053 69409257#0 69409257#1 69409262 -4611784#0"/>
        <route edges="141233527#0 141233527#1 141233527#2 141233527#3 141233527#4 30184927 -478243 -65425838 -22701539 -4686298 62276481#1 -478332#0 -4887461#2 -4887461#1 -4887461#0 53357053 69409257#0 69409257#1 69409262 -4611784#0"/>
        <route edges="141233527#0 -4887456 -4686458 -26710185#1 -26710185#0 30183748 27989512 4692267 -61639004#1 -61639004#0 -4692264 4692273 23969684#1 53357391 50650808 68462528#0 68462528#1 68462528#2 68462528#3 52158843#0 155070193 53356537#0 53356537#1 25178766"/>
        <route edges="141233527#0 -4887456 -4686458 -26710185#1 -26710185#0 30183748 27989512 4692267 -61639004#1 -61639004#0 -4692264 4692273 23969684#1 53357391 50650808 68462528#0 68462528#1 86384371 68576795#0 68576795#1 68576795#2 -4588059#5 -4588059#4 -4588059#3 -4588059#1 -4588059#0 -23752644#3 37911426#1"/>
        <route edges="141233527#0 -4887456 -60826006#1 228498046#3 228498046#6 228498046#9 228498046#11 36737687#1 36737687#3 36737687#4 4611894#1 4611894#2 28807167#1 28807167#2 4068045#0 4068045#1 155070193 53356537#0 53356537#1 25178766"/>
        <route edges="141233527#0 -4887456 -60826006#1 228498046#3 228498046#6 228498046#9 228498046#11 36737687#1 36737687#3 36737687#4 4611894#1 4611894#2 28807167#1 28807167#2 4068045#0 4068045#1 4475559#0 4475559#1 4475559#2 4475559#3 37911426#1"/>
        <route edges="141233527#0 -4887456 -60826006#1 228498046#3 228498046#6 228498046#9 228498046#11 36737687#1 36737687#3 36737687#4 4611894#1 4611894#2 28807170#0 28807170#1 61745073#0 61745073#1 4675368#0 4675368#2 4675368#3 68647318#0 68647318#1 -4611784#0"/>
        <route edges="141233527#0 -4887456 -60826006#1 228498046#3 228498046#6 228498046#9 228498046#11 --478361 --478365#0 -71089569 -4686363 -68647316#1 36880937#1 66071383#0 66071383#1 66071383#2 69409257#1 69409262 -4611784#0"/>
        <route edges="141233527#0 -4887456 -60826006#1 228498046#3 228498046#6 228498046#9 4692267 -61639004#1 -61639004#0 -4692264 4692273 23969684#1 53357391 50650808 68462528#0 68462528#1 68462528#2 68462528#3 52158843#0 155070193 53356537#0 53356537#1 25178766"/>
        <route edges="141233527#0 -4887456 -60826006#1 228498046#3 228498046#6 228498046#9 4692267 -61639004#1 -61639004#0 -4692264 4692273 23969684#1 53357391 50650808 68462528#0 68462528#1 68462528#2 68462528#3 52158843#0 4475559#0 4475559#1 4475559#2 4475559#3 37911426#1"/>
        <route edges="141233527#0 -4887456 -60826006#1 228498046#3 228498046#6 228498046#9 4692267 -61639004#1 -61639004#0 -4692264 4692273 23969684#1 53357391 50650808 68462528#0 68462528#1 86384371 68576795#0 68576795#1 68576795#2 -4588059#5 -4588059#4 -4588059#3 -4588059#1 -4588059#0 -23752644#3 37911426#1"/>
        <route edges="141233527#0 -4887456 -60826006#1 36737686#10 36737686#11 228499478"/>
    </routeDistribution>
    <routeDistribution id="io0070100.trips.xml">
        <route edges="308982 --478230 -142522 --478239 30184962 30184937 111648287#0 4686459 -164674800 -60826006#1 36737686#10 36737686#11 228499478"/>
        <route edges="308982 --478230 -142522 --478239 30184962 64781925#0 -28251488#1 -26800849#1 26710185#1 4686458 -60826006#1 36737686#10 36737686#11 228499478"/>
        <route edges="308982 --478230 -142522 --478239 -65425838 34393710#0 34393710#1 4887458#0 4887458#1 4526406#1 169738742#0 169738742#1 -26056008 -68647316#0 146008738#1 28807167#1 28807167#2 4068045#0 4068045#1 155070193 53356537#0 53356537#1 25178766"/>
        <route edges="308982 --478230 -142522 --478239 -65425838 34393710#0 34393710#1 4887458#0 4887458#1 4526406#1 169738742#0 169738742#1 -26056008 -68647316#0 146008738#1 28807167#1 28807167#2 4068045#0 4068045#1 4475559#0 4475559#1 4475559#2 4475559#3 37911426#1"/>
        <route edges="308982 -478312#0 -478312#1 -478316 159155869 -478194 -478192 4892701#0 4892701#1 4892701#2 4612858#0 4612858#1 4526406#1 169738742#0 169738742#1 169738742#2 4619361 30705168#1 30705169 146008738#0 146008738#1 28807167#1 28807167#2 24986655 -24986658#2 -24986658#1 -32975880#1 -32975880#0 53356537#0 53356537#1 25178766"/>
        <route edges="308982 -478312#0 -478312#1 -478316 159155869 -478194 -478192 4892701#0 4892701#1 4892701#2 4612858#0 4612858#1 4526406#1 169738742#0 169738742#1 169738742#2 4619361 30705168#1 30705169 146008738#0 146008738#1 28807167#1 28807167#2 4068045#0 4068045#1 155070193 53356537#0 53356537#1 25178766"/>
        <route edges="308982 -478312#0 -478312#1 -478316 159155869 -478194 -478192 4892701#0 4892701#1 4892701#2 4612858#0 4612858#1 4526406#1 169738742#0 169738742#1 169738742#2 4619361 30705168#1 30705169 146008738#0 146008738#1 28807167#1 28807167#2 4068045#0 4068045#1 4475559#0 4475559#1 4475559#2 4475559#3 37911426#1"/>
        <route edges="308982 -478312#0 -478312#1 -478316 159155869 -478194 -478198 -4887461#2 -4887461#1 -4887461#0 53357053 69409257#0 69409257#1 69409262 -4611784#0"/>
        <route edges="308982 -478312#0 -478312#1 -478316 24315000 183497785 31480086 --478318 -478326#1 -641742 142415#2 142415#3 142415#4 -95926536#2 -95926536#1 -95926536#0 -46096956#4 69409262 -4611784#0"/>
    </routeDistribution>
    <routeDistribution id="io0080100.trips.xml">
        <route edges="-338147 24579669 -478190#0 -478190#1 -478194 -478192 4612860#0 4612860#1 -478300 24699014 30184962 30184937 111648287#0 4686459 -164674800 -60826006#1 36737686#10 36737686#11 228499478"/>
        <route edges="-338147 24579669 -478190#0 -478190#1 -478194 -478192 4612860#0 4612860#1 -478300 24699014 30184962 64781925#0 -28251488#1 -26800849#1 26710185#1 4686458 -60826006#1 36737686#10 36737686#11 228499478"/>
        <route edges="-338147 24579669 -478190#0 -478190#1 -478194 -478192 4892701#0 4892701#1 4892701#2 4612858#0 4612858#1 4526406#1 169738742#0 169738742#1 169738742#2 4619361 30705168#1 30705169 146008738#0 146008738#1 28807167#1 28807167#2 24986655 -24986658#2 -24986658#1 -32975880#1 -32975880#0 53356537#0 53356537#1 25178766"/>
        <route edges="-338147 24579669 -478190#0 -478190#1 -478194 -478192 4892701#0 4892701#1 4892701#2 4612858#0 4612858#1 4526406#1 169738742#0 169738742#1 169738742#2 4619361 30705168#1 30705169 146008738#0 146008738#1 28807167#1 28807167#2 4068045#0 4068045#1 155070193 53356537#0 53356537#1 25178766"/>
        <route edges="-338147 24579669 -478190#0 -478190#1 -478194 -478192 4892701#0 4892701#1 4892701#2 4612858#0 4612858#1 4526406#1 169738742#0 169738742#1 169738742#2 4619361 30705168#1 30705169 146008738#0 146008738#1 28807167#1 28807167#2 4068045#0 4068045#1 4475559#0 4475559#1 4475559#2 4475559#3 37911426#1"/>
        <route edges="-338147 24579669 -478190#0 -478190#1 -478194 -478198 -4887461#2 -4887461#1 -4887461#0 53357053 69409257#0 69409257#1 69409262 -4611784#0"/>
        <route edges="-338147 --478318 -478326#1 -478336 4612761 186220566 4612858#1 4526406#1 169738742#0 169738742#1 -26056008 -68647316#0 146008738#1 28807167#1 28807167#2 4068045#0 4068045#1 155070193 53356537#0 53356537#1 25178766"/>
        <route edges="-338147 --478318 -478326#1 -478336 4612761 186220566 4612858#1 4526406#1 169738742#0 169738742#1 -26056008 -68647316#0 146008738#1 28807167#1 28807167#2 4068045#0 4068045#1 4475559#0 4475559#1 4475559#2 4475559#3 37911426#1"/>
        <route edges="-338147 --478318 -478326#1 -478336 4612761 186220566 4612858#1 -4887458#1 -4887458#0 -34393710#1 31233249 -65425821 -28251488#1 -26800849#1 -26800849#0 36737686#7 36737686#10 36737686#11 228499478"/>
        <route edges="-338147 --478318 -478326#1 -478336 -4887461#1 -4887461#0 53357053 69409257#0 69409257#1 69409262 -4611784#0"/>
        <route edges="-338147 --478318 -478326#1 -641742 142415#2 142415#3 142415#4 -95926536#2 -95926536#1 -95926536#0 -46096956#4 69409262 -4611784#0"/>
    </routeDistribution>
    <routeDistribution id="io0090100.trips.xml">
        <route edges="142533 24579669 -478190#0 -478190#1 -478194 -478192 4612860#0 4612860#1 -478300 24699014 30184962 30184937 111648287#0 4686459 -164674800 -60826006#1 36737686#10 36737686#11 228499478"/>
        <route edges="142533 24579669 -478190#0 -478190#1 -478194 -478192 4612860#0 4612860#1 -478300 24699014 30184962 64781925#0 -28251488#1 -26800849#1 26710185#1 4686458 -60826006#1 36737686#10 36737686#11 228499478"/>
        <route edges="142533 24579669 -478190#0 -478190#1 -478194 -478192 4892701#0 4892701#1 4892701#2 4612858#0 4612858#1 4526406#1 169738742#0 169738742#1 169738742#2 4619361 30705168#1 30705169 146008738#0 146008738#1 28807167#1 28807167#2 24986655 -24986658#2 -24986658#1 -32975880#1 -32975880#0 53356537#0 53356537#1 25178766"/>
        <route edges="142533 24579669 -478190#0 -478190#1 -478194 -478192 4892701#0 4892701#1 4892701#2 4612858#0 4612858#1 4526406#1 169738742#0 169738742#1 169738742#2 4619361 30705168#1 30705169 146008738#0 146008738#1 28807167#1 28807167#2 4068045#0 4068045#1 155070193 53356537#0 53356537#1 25178766"/>
        <route edges="142533 24579669 -478190#0 -478190#1 -478194 -478192 4892701#0 4892701#1 4892701#2 4612858#0 4612858#1 4526406#1 169738742#0 169738742#1 169738742#2 4619361 30705168#1 30705169 146008738#0 146008738#1 28807167#1 28807167#2 4068045#0 4068045#1 4475559#0 4475559#1 4475559#2 4475559#3 37911426#1"/>
        <route edges="142533 24579669 -478190#0 -478190#1 -478194 -478198 -4887461#2 -4887461#1 -4887461#0 53357053 69409257#0 69409257#1 69409262 -4611784#0"/>
        <route edges="142533 --478318 -478326#1 -478336 4612761 186220566 4612858#1 4526406#1 169738742#0 169738742#1 -26056008 -68647316#0 146008738#1 28807167#1 28807167#2 4068045#0 4068045#1 155070193 53356537#0 53356537#1 25178766"/>
        <route edges="142533 --478318 -478326#1 -478336 4612761 186220566 4612858#1 4526406#1 169738742#0 169738742#1 -26056008 -68647316#0 146008738#1 28807167#1 28807167#2 4068045#0 4068045#1 4475559#0 4475559#1 4475559#2 4475559#3 37911426#1"/>
        <route edges="142533 --478318 -478326#1 -478336 4612761 186220566 4612858#1 -4887458#1 -4887458#0 -34393710#1 31233249 -65425821 -28251488#1 -26800849#1 -26800849#0 36737686#7 36737686#10 36737686#11 228499478"/>
        <route edges="142533 --478318 -478326#1 -478336 -4887461#1 -4887461#0 53357053 69409257#0 69409257#1 69409262 -4611784#0"/>
        <route edges="142533 --478318 -478326#1 -641742 142415#2 142415#3 142415#4 -95926536#2 -95926536#1 -95926536#0 -46096956#4 69409262 -4611784#0"/>
    </routeDistribution>
    <routeDistribution id="io0100100.trips.xml">
        <route edges="-337746 -478342 142415#4 142415#0 142415#1 641742 -478328#0 -478318 24579669 -478190#0 -478190#1 -478194 -478192 4612860#0 4612860#1 -478300 24699014 30184962 30184937 111648287#0 4686459 -164674800 -60826006#1 36737686#10 36737686#11 228499478"/>
        <route edges="-337746 -478342 142415#4 142415#0 142415#1 641742 -478328#0 -478318 24579669 -478190#0 -478190#1 -478194 -478192 4612860#0 4612860#1 -478300 24699014 30184962 64781925#0 -28251488#1 -26800849#1 26710185#1 4686458 -60826006#1 36737686#10 36737686#11 228499478"/>
        <route edges="-337746 -478342 142415#4 142415#0 142418 -4612696#2 -4612696#1 -4612696#0 169738742#0 169738742#1 169738742#2 4619361 30705168#1 30705169 146008738#0 146008738#1 28807167#1 28807167#2 24986655 -24986658#2 -24986658#1 -32975880#1 -32975880#0 53356537#0 53356537#1 25178766"/>
        <route edges="-337746 -478342 142415#4 142415#0 142418 -4612696#2 -4612696#1 -4612696#0 169738742#0 169738742#1 169738742#2 4619361 30705168#1 30705169 146008738#0 146008738#1 28807167#1 28807167#2 4068045#0 4068045#1 155070193 53356537#0 53356537#1 25178766"/>
        <route edges="-337746 -478342 142415#4 142415#0 142418 -4612696#2 -4612696#1 -4612696#0 169738742#0 169738742#1 169738742#2 4619361 30705168#1 30705169 146008738#0 146008738#1 28807167#1 28807167#2 4068045#0 4068045#1 4475559#0 4475559#1 4475559#2 4475559#3 37911426#1"/>
        <route edges="-337746 -478342 142415#4 142415#0 142418 -4612696#2 -4612696#1 -4612696#0 4686356#1 -4686354#1 --478365#1 -478361 4686360#6 36737686#3 36737686#4 36737686#7 36737686#10 36737686#11 228499478"/>
        <route edges="-337746 -478342 142415#4 -95926536#2 4612695#0 4612695#1 4612695#2 4612695#3 169738742#1 169738742#2 4619361 30705168#1 30705169 146008738#0 146008738#1 28807167#1 28807167#2 24986655 -24986658#2 -24986658#1 -32975880#1 -32975880#0 53356537#0 53356537#1 25178766"/>
        <route edges="-337746 -478342 142415#4 -95926536#2 4612695#0 4612695#1 4612695#2 4612695#3 169738742#1 169738742#2 4619361 30705168#1 30705169 146008738#0 146008738#1 28807167#1 28807167#2 4068045#0 4068045#1 4475559#0 4475559#1 4475559#2 4475559#3 37911426#1"/>
        <route edges="-337746 -478342 142415#4 -95926536#2 4612695#0 69409257#0 -66071383#2 -66071383#1 -66071383#0 -26056008 -68647316#0 146008738#1 28807167#1 28807167#2 4068045#0 4068045#1 155070193 53356537#0 53356537#1 25178766"/>
        <route edges="-337746 -478342 142415#4 -95926536#2 4612695#0 69409257#0 -66071383#2 -66071383#1 -66071383#0 -26056008 -68647316#0 146008738#1 28807167#1 28807167#2 4068045#0 4068045#1 4475559#0 4475559#1 4475559#2 4475559#3 37911426#1"/>
        <route edges="-337746 -478342 142415#4 -95926536#2 4612695#0 69409257#0 69409257#1 69409262 -4611784#0"/>
        <route edges="-337746 -478342 142415#4 -95926536#2 -95926536#1 -95926536#0 -46096956#4 69409262 -4611784#0"/>
    </routeDistribution>
    <routeDistribution id="io0110100.trips.xml">
        <route edges="4611784#0 4611784#1 32253794#0 32253794#1 188308881 188308863 217797951#1 217797951#2 4619361 30705168#1 30705169 146008738#0 146008738#1 28807167#1 28807167#2 24986655 -24986658#2 -24986658#1 -32975880#1 -32975880#0 53356537#0 53356537#1 25178766"/>
        <route edges="4611784#0 4611784#1 32253794#0 32253794#1 188308881 188308863 217797951#1 217797951#2 4619361 30705168#1 30705169 146008738#0 146008738#1 28807167#1 28807167#2 4068045#0 4068045#1 155070193 53356537#0 53356537#1 25178766"/>
        <route edges="4611784#0 4611784#1 32253794#0 32253794#1 188308881 188308863 217797951#1 217797951#2 4619361 30705168#1 30705169 146008738#0 146008738#1 28807167#1 28807167#2 4068045#0 4068045#1 4475559#0 4475559#1 4475559#2 4475559#3 37911426#1"/>
        <route edges="4611784#0 4611784#1 32253794#0 32253794#1 188308881 188308863 217797951#1 217797951#2 4619361 30705168#1 30705169 146008738#0 146008738#1 4675340#1 4675340#2 4686360#0 4686360#3 4686360#4 4686360#6 36737686#3 36737686#4 36737686#7 36737686#10 36737686#11 228499478"/>
        <route edges="4611784#0 -69409262 -46096956#3 -4887784 68647318#1 -4611784#0"/>
        <route edges="4611784#0 -69409262 -69409257#1 -66071383#2 -66071383#1 -66071383#0 -26056008 -68647316#0 146008738#1 28807167#1 28807167#2 4068045#0 4068045#1 155070193 53356537#0 53356537#1 25178766"/>
        <route edges="4611784#0 -69409262 -69409257#1 -66071383#2 -66071383#1 -66071383#0 -26056008 -68647316#0 146008738#1 28807167#1 28807167#2 4068045#0 4068045#1 4475559#0 4475559#1 4475559#2 4475559#3 37911426#1"/>
        <route edges="4611784#0 -69409262 -69409257#1 -66071383#2 -66071383#1 -66071383#0 -26056008 68647316#1 4686363 71089569 -478365#0 -478361 4686360#6 36737686#3 36737686#4 36737686#7 36737686#10 36737686#11 228499478"/>
    </routeDistribution>
    <routeDistribution id="io0120100.trips.xml">
        <route edges="28402260 39839435 39839436#0 172780076 109781892#1 4611775#0 4611775#1 23755710#0 23755710#1 188308881 188308863 217797951#1 46096957 46096956#1 46096956#2 46096956#3 69409262 -4611784#0"/>
        <route edges="28402260 39839435 39839436#0 39839436#1 39839436#2 -31420590#0 146008695 47157399 24704435#0 4068045#0 4068045#1 4475559#0 4475559#1 4475559#2 4475559#3 37911426#1"/>
        <route edges="28402260 39839435 39839436#0 39839436#1 39839436#2 -31420590#0 146008695 47157399 24704435#0 4619363#0 4619363#1 4675340#1 4675340#2 4686360#0 4686360#3 4686360#4 4686360#6 36737686#3 36737686#4 36737686#7 36737686#10 36737686#11 228499478"/>
        <route edges="28402260 39839435 39839436#0 39839436#1 39839436#2 -31420590#0 146008695 47157399 26472938 34059285 146008683 4526403#1 61745073#1 4675368#0 4675368#2 4675368#3 68647318#0 68647318#1 -4611784#0"/>
        <route edges="28402260 39839435 -4611772 24214090#3 42998616#0 42998616#1 12770224 240451922#0 240451922#1 240451922#2 53356537#1 25178766"/>
        <route edges="28402260 39839435 -4611772 24214090#3 42998616#0 42998616#1 12770224 240451922#0 24986658#0 -32975880#1 -32975880#0 148359938 -25036025 24889513#1 4475559#3 37911426#1"/>
        <route edges="28402260 -4887463 109781892#0 109781892#1 4611775#0 4611775#1 23755710#0 23755710#1 188308881 188308863 217797951#1 46096957 46096956#1 46096956#2 46096956#3 69409262 -4611784#0"/>
    </routeDistribution>
    <routeDistribution id="io0130100.trips.xml">
        <route edges="24214090#0 24214090#1 24214090#2 24214090#3 24214090#6 24214090#7 24214090#8 146008695 47157399 24704435#0 4068045#0 4068045#1 4475559#0 4475559#1 4475559#2 4475559#3 37911426#1"/>
        <route edges="24214090#0 24214090#1 24214090#2 24214090#3 24214090#6 24214090#7 24214090#8 146008695 47157399 24704435#0 4619363#0 4619363#1 4675340#1 4675340#2 4686360#0 4686360#3 4686360#4 4686360#6 36737686#3 36737686#4 36737686#7 36737686#10 36737686#11 228499478"/>
        <route edges="24214090#0 24214090#1 24214090#2 24214090#3 24214090#6 24214090#7 24214090#8 146008695 47157399 26472938 34059285 146008683 4526403#1 61745073#1 4675368#0 4675368#2 4675368#3 68647318#0 68647318#1 -4611784#0"/>
        <route edges="24214090#0 24214090#1 24214090#2 24214090#3 42998616#0 42998616#1 12770224 240451922#0 240451922#1 240451922#2 53356537#1 25178766"/>