<?xml version="1.0" encoding="UTF-8"?>

<!-- generated on Mon Dec 30 18:11:48 2013 by SUMO netconvert Version 0.19.0
<?xml version="1.0" encoding="UTF-8"?>

<configuration xmlns:xsi="http://www.w3.org/2001/XMLSchema-instance" xsi:noNamespaceSchemaLocation="http://sumo-sim.org/xsd/netconvertConfiguration.xsd">

    <input>
        <connection-files value="berlin.con.xml"/>
        <type-files value="berlin.typ.xml"/>
        <osm-files value="berlin.osm"/>
    </input>

    <output>
        <output-file value="berlin.net.xml"/>
        <output.street-names value="true"/>
        <output.original-names value="true"/>
    </output>

    <projection>
        <proj.utm value="true"/>
    </projection>

    <edge_removal>
        <remove-edges.isolated value="true"/>
    </edge_removal>

    <processing>
        <no-turnarounds value="true"/>
        <geometry.remove value="true"/>
        <junctions.join value="true"/>
        <junctions.join-exclude value="1969136398,29217270,694599241,-338183,455231384,815343327,29217340,29788946,815343319,-343871,29217332,-343871,29217322,29217332,29217334,-343871,29217322,29217332,29217334,-338183,455231384,815343327,-342719,-342745,1029432861,1029432889,2532149972,27432942,29825865,166528,166530,166532,166534,166536,166538,166540,112,294607388,294607391,294494421,294494422"/>
    </processing>

</configuration>
-->

<net version="0.13" xmlns:xsi="http://www.w3.org/2001/XMLSchema-instance" xsi:noNamespaceSchemaLocation="http://sumo-sim.org/xsd/net_file.xsd">

    <location netOffset="-389257.77,-5816298.33" convBoundary="0.00,0.00,3795.45,2438.32" origBoundary="13.368832,52.486208,13.424648,52.507582" projParameter="+proj=utm +zone=33 +ellps=WGS84 +datum=WGS84 +units=m +no_defs"/>

    <edge id=":-335825_0" function="internal">
        <lane id=":-335825_0_0" index="0" speed="13.89" length="0.62" shape="3352.75,1468.09 3352.68,1467.16"/>
        <lane id=":-335825_0_1" index="1" speed="13.89" length="0.62" shape="3356.00,1467.53 3355.98,1467.23"/>
    </edge>
    <edge id=":-335829_0" function="internal">
        <lane id=":-335829_0_0" index="0" speed="13.89" length="0.20" shape="3413.24,1425.93 3413.08,1426.06"/>
    </edge>
    <edge id=":-335831_0" function="internal">
        <lane id=":-335831_0_0" index="0" speed="13.89" length="11.66" shape="3408.21,1437.08 3404.55,1437.19 3401.77,1437.59 3399.87,1438.27 3398.86,1439.23"/>
        <lane id=":-335831_0_1" index="1" speed="13.89" length="11.66" shape="3408.23,1433.78 3403.62,1434.00 3400.04,1434.73 3397.47,1435.96 3395.93,1437.70"/>
    </edge>
    <edge id=":-335831_2" function="internal">
        <lane id=":-335831_2_0" index="0" speed="13.89" length="13.93" shape="3407.11,1430.01 3404.04,1431.53 3401.13,1432.63 3398.41,1434.35 3395.93,1437.70"/>
    </edge>
    <edge id=":-335831_3" function="internal">
        <lane id=":-335831_3_0" index="0" speed="13.89" length="10.78" shape="3402.30,1428.64 3401.58,1431.88 3401.06,1434.11 3400.30,1436.25 3398.86,1439.23"/>
        <lane id=":-335831_3_1" index="1" speed="13.89" length="10.78" shape="3399.09,1427.87 3398.43,1430.88 3397.95,1432.95 3397.26,1434.94 3395.93,1437.70"/>
    </edge>
    <edge id=":-335843_0" function="internal">
        <lane id=":-335843_0_0" index="0" speed="11.11" length="5.00" shape="3344.92,1443.82 3343.96,1442.97 3342.89,1442.57 3341.71,1442.62 3340.42,1443.13"/>
    </edge>
    <edge id=":-335843_1" function="internal">
        <lane id=":-335843_1_0" index="0" speed="13.89" length="5.58" shape="3344.92,1443.82 3341.64,1438.92"/>
        <lane id=":-335843_1_1" index="1" speed="13.89" length="5.58" shape="3347.45,1441.70 3344.53,1437.33"/>
    </edge>
    <edge id=":-335903_0" function="internal">
        <lane id=":-335903_0_0" index="0" speed="13.89" length="0.10" shape="3444.75,1392.28 3444.75,1392.28"/>
    </edge>
    <edge id=":-335905_0" function="internal">
        <lane id=":-335905_0_0" index="0" speed="13.89" length="5.39" shape="3418.33,1406.42 3422.65,1403.18"/>
    </edge>
    <edge id=":-335905_1" function="internal">
        <lane id=":-335905_1_0" index="0" speed="13.89" length="5.00" shape="3418.33,1406.42 3423.30,1407.06"/>
        <lane id=":-335905_1_1" index="1" speed="13.89" length="5.00" shape="3417.92,1409.71 3422.89,1410.33"/>
    </edge>
    <edge id=":-335909_0" function="internal">
        <lane id=":-335909_0_0" index="0" speed="13.89" length="0.10" shape="3448.88,1395.14 3448.88,1395.14"/>
    </edge>
    <edge id=":-335913_0" function="internal">
        <lane id=":-335913_0_0" index="0" speed="11.11" length="0.10" shape="3456.92,1388.24 3456.90,1388.20"/>
    </edge>
    <edge id=":-335913_1" function="internal">
        <lane id=":-335913_1_0" index="0" speed="11.11" length="5.84" shape="3456.12,1386.68 3460.43,1382.73"/>
    </edge>
    <edge id=":-335915_0" function="internal">
        <lane id=":-335915_0_0" index="0" speed="8.33" length="5.20" shape="3588.22,1324.54 3587.37,1323.38 3586.36,1322.77 3585.19,1322.69 3583.85,1323.15"/>
    </edge>
    <edge id=":-335915_1" function="internal">
        <lane id=":-335915_1_0" index="0" speed="8.33" length="9.65" shape="3588.22,1324.54 3583.66,1316.03"/>
    </edge>
    <edge id=":-335915_2" function="internal">
        <lane id=":-335915_2_0" index="0" speed="8.33" length="3.30" shape="3588.22,1324.54 3587.22,1321.84 3587.24,1321.42"/>
    </edge>
    <edge id=":-335915_12" function="internal">
        <lane id=":-335915_12_0" index="0" speed="8.33" length="7.16" shape="3587.24,1321.42 3587.34,1319.49 3588.58,1317.48 3590.93,1315.83"/>
    </edge>
    <edge id=":-335915_3" function="internal">
        <lane id=":-335915_3_0" index="0" speed="8.33" length="5.03" shape="3592.43,1318.77 3591.29,1319.57 3590.70,1320.53 3590.64,1321.66 3591.12,1322.96"/>
    </edge>
    <edge id=":-335915_4" function="internal">
        <lane id=":-335915_4_0" index="0" speed="8.33" length="9.63" shape="3592.43,1318.77 3583.85,1323.15"/>
    </edge>
    <edge id=":-335915_5" function="internal">
        <lane id=":-335915_5_0" index="0" speed="8.33" length="3.22" shape="3592.43,1318.77 3589.72,1319.70 3589.36,1319.68"/>
    </edge>
    <edge id=":-335915_13" function="internal">
        <lane id=":-335915_13_0" index="0" speed="8.33" length="7.21" shape="3589.36,1319.68 3587.35,1319.55 3585.34,1318.33 3583.66,1316.03"/>
    </edge>
    <edge id=":-335915_6" function="internal">
        <lane id=":-335915_6_0" index="0" speed="8.33" length="5.17" shape="3586.58,1314.49 3587.41,1315.62 3588.41,1316.22 3589.58,1316.29 3590.93,1315.83"/>
    </edge>
    <edge id=":-335915_7" function="internal">
        <lane id=":-335915_7_0" index="0" speed="8.33" length="9.61" shape="3586.58,1314.49 3591.12,1322.96"/>
    </edge>
    <edge id=":-335915_8" function="internal">
        <lane id=":-335915_8_0" index="0" speed="8.33" length="3.25" shape="3586.58,1314.49 3587.54,1317.17 3587.52,1317.57"/>
    </edge>
    <edge id=":-335915_14" function="internal">
        <lane id=":-335915_14_0" index="0" speed="8.33" length="7.13" shape="3587.52,1317.57 3587.41,1319.51 3586.18,1321.50 3583.85,1323.15"/>
    </edge>
    <edge id=":-335915_9" function="internal">
        <lane id=":-335915_9_0" index="0" speed="8.33" length="5.01" shape="3582.35,1320.21 3583.47,1319.42 3584.06,1318.45 3584.13,1317.33 3583.66,1316.03"/>
    </edge>
    <edge id=":-335915_10" function="internal">
        <lane id=":-335915_10_0" index="0" speed="8.33" length="9.64" shape="3582.35,1320.21 3590.93,1315.83"/>
    </edge>
    <edge id=":-335915_11" function="internal">
        <lane id=":-335915_11_0" index="0" speed="8.33" length="3.23" shape="3582.35,1320.21 3585.03,1319.29 3585.42,1319.31"/>
    </edge>
    <edge id=":-335915_15" function="internal">
        <lane id=":-335915_15_0" index="0" speed="8.33" length="7.20" shape="3585.42,1319.31 3587.39,1319.44 3589.42,1320.66 3591.12,1322.96"/>
    </edge>
    <edge id=":-336067_0" function="internal">
        <lane id=":-336067_0_0" index="0" speed="13.89" length="0.10" shape="3422.71,1436.71 3422.74,1436.71"/>
        <lane id=":-336067_0_1" index="1" speed="13.89" length="0.10" shape="3422.69,1433.41 3422.68,1433.41"/>
    </edge>
    <edge id=":-336077_0" function="internal">
        <lane id=":-336077_0_0" index="0" speed="13.89" length="8.33" shape="3395.22,1403.38 3396.20,1404.15 3397.73,1404.69 3399.81,1405.00 3402.42,1405.08"/>
        <lane id=":-336077_0_1" index="1" speed="13.89" length="8.33" shape="3395.22,1403.38 3397.19,1405.58 3399.06,1407.15 3400.82,1408.08 3402.47,1408.38"/>
    </edge>
    <edge id=":-336077_2" function="internal">
        <lane id=":-336077_2_0" index="0" speed="13.89" length="9.62" shape="3395.22,1403.38 3400.20,1412.04"/>
        <lane id=":-336077_2_1" index="1" speed="13.89" length="9.62" shape="3392.64,1405.45 3397.22,1413.47"/>
    </edge>
    <edge id=":-336133_0" function="internal">
        <lane id=":-336133_0_0" index="0" speed="11.11" length="5.01" shape="3156.74,1819.21 3155.99,1818.06 3155.05,1817.43 3153.93,1817.32 3152.62,1817.73"/>
    </edge>
    <edge id=":-336133_1" function="internal">
        <lane id=":-336133_1_0" index="0" speed="8.33" length="16.10" shape="3156.74,1819.21 3155.09,1815.66 3153.34,1811.91 3151.60,1808.17 3149.94,1804.62"/>
    </edge>
    <edge id=":-336133_2" function="internal">
        <lane id=":-336133_2_0" index="0" speed="11.11" length="5.17" shape="3156.74,1819.21 3155.86,1816.43 3155.73,1814.19"/>
    </edge>
    <edge id=":-336133_9" function="internal">
        <lane id=":-336133_9_0" index="0" speed="11.11" length="7.80" shape="3155.73,1814.19 3155.68,1813.41 3156.22,1810.15 3157.46,1806.65"/>
    </edge>
    <edge id=":-336133_3" function="internal">
        <lane id=":-336133_3_0" index="0" speed="13.89" length="8.53" shape="3159.66,1813.70 3151.20,1814.75"/>
    </edge>
    <edge id=":-336133_4" function="internal">
        <lane id=":-336133_4_0" index="0" speed="11.11" length="5.99" shape="3159.74,1810.40 3156.43,1809.98 3153.96,1808.98"/>
    </edge>
    <edge id=":-336133_5" function="internal">
        <lane id=":-336133_5_0" index="0" speed="13.89" length="2.78" shape="3159.74,1810.40 3158.13,1810.13 3157.22,1809.42"/>
    </edge>
    <edge id=":-336133_10" function="internal">
        <lane id=":-336133_10_0" index="0" speed="11.11" length="6.03" shape="3153.96,1808.98 3153.70,1808.87 3151.53,1807.08 3149.94,1804.62"/>
    </edge>
    <edge id=":-336133_11" function="internal">
        <lane id=":-336133_11_0" index="0" speed="13.89" length="2.85" shape="3157.22,1809.42 3157.00,1808.26 3157.46,1806.65"/>
    </edge>
    <edge id=":-336133_6" function="internal">
        <lane id=":-336133_6_0" index="0" speed="11.11" length="5.07" shape="3148.36,1808.79 3149.54,1808.01 3150.20,1807.06 3150.33,1805.93 3149.94,1804.62"/>
    </edge>
    <edge id=":-336133_7" function="internal">
        <lane id=":-336133_7_0" index="0" speed="13.89" length="8.11" shape="3148.36,1808.79 3154.44,1805.32"/>
        <lane id=":-336133_7_1" index="1" speed="13.89" length="8.11" shape="3149.78,1811.77 3157.46,1806.65"/>
    </edge>
    <edge id=":-336185_0" function="internal">
        <lane id=":-336185_0_0" index="0" speed="15.28" length="7.30" shape="2859.88,1916.93 2860.65,1918.00 2861.58,1918.61 2862.69,1918.77 2863.97,1918.47"/>
        <lane id=":-336185_0_1" index="1" speed="15.28" length="7.30" shape="2856.96,1918.47 2858.49,1920.61 2860.37,1921.83 2862.59,1922.15 2865.15,1921.56"/>
    </edge>
    <edge id=":-336185_2" function="internal">
        <lane id=":-336185_2_0" index="0" speed="15.28" length="6.03" shape="2850.39,1926.14 2851.11,1924.88 2851.47,1923.70 2851.47,1922.58 2851.12,1921.54"/>
        <lane id=":-336185_2_1" index="1" speed="15.28" length="6.03" shape="2850.39,1926.14 2852.08,1923.64 2853.26,1921.78 2853.91,1920.57 2854.04,1920.01"/>
    </edge>
    <edge id=":-336185_4" function="internal">
        <lane id=":-336185_4_0" index="0" speed="16.67" length="15.45" shape="2852.52,1928.86 2855.15,1924.95 2857.19,1922.32 2859.75,1920.37 2863.97,1918.47"/>
        <lane id=":-336185_4_1" index="1" speed="16.67" length="15.45" shape="2852.52,1928.86 2855.29,1925.56 2857.84,1923.94 2860.89,1922.95 2865.15,1921.56"/>
    </edge>
    <edge id=":-336201_0" function="internal">
        <lane id=":-336201_0_0" index="0" speed="13.89" length="9.51" shape="2694.20,2036.83 2685.62,2040.94"/>
        <lane id=":-336201_0_1" index="1" speed="13.89" length="9.51" shape="2692.77,2033.85 2684.20,2037.96"/>
    </edge>
    <edge id=":-336201_2" function="internal">
        <lane id=":-336201_2_0" index="0" speed="11.11" length="6.33" shape="2692.77,2033.85 2690.12,2034.45 2687.56,2033.64 2686.86,2033.03"/>
    </edge>
    <edge id=":-336201_8" function="internal">
        <lane id=":-336201_8_0" index="0" speed="11.11" length="6.71" shape="2686.86,2033.03 2685.08,2031.44 2682.69,2027.84"/>
    </edge>
    <edge id=":-336201_3" function="internal">
        <lane id=":-336201_3_0" index="0" speed="11.11" length="5.22" shape="2685.59,2026.26 2686.46,2027.47 2687.48,2028.14 2688.63,2028.29 2689.92,2027.90"/>
    </edge>
    <edge id=":-336201_4" function="internal">
        <lane id=":-336201_4_0" index="0" speed="11.11" length="13.45" shape="2685.59,2026.26 2687.29,2030.27 2687.63,2033.56 2686.59,2036.12 2684.20,2037.96"/>
    </edge>
    <edge id=":-336201_5" function="internal">
        <lane id=":-336201_5_0" index="0" speed="11.11" length="5.06" shape="2681.34,2032.01 2682.51,2031.23 2683.12,2030.28 2683.18,2029.15 2682.69,2027.84"/>
    </edge>
    <edge id=":-336201_6" function="internal">
        <lane id=":-336201_6_0" index="0" speed="13.89" length="9.51" shape="2681.34,2032.01 2689.92,2027.90"/>
        <lane id=":-336201_6_1" index="1" speed="13.89" length="9.51" shape="2682.77,2034.99 2691.35,2030.88"/>
    </edge>
    <edge id=":-336203_0" function="internal">
        <lane id=":-336203_0_0" index="0" speed="11.11" length="9.47" shape="2511.48,2129.73 2509.48,2128.34 2507.35,2127.69 2505.08,2127.77 2502.68,2128.58"/>
    </edge>
    <edge id=":-336203_1" function="internal">
        <lane id=":-336203_1_0" index="0" speed="8.33" length="18.54" shape="2511.48,2129.73 2508.43,2126.70 2505.14,2122.97 2502.08,2119.06 2499.71,2115.47"/>
    </edge>
    <edge id=":-336203_2" function="internal">
        <lane id=":-336203_2_0" index="0" speed="11.11" length="16.14" shape="2511.48,2129.73 2508.05,2125.83 2506.91,2122.41 2508.05,2119.49 2511.48,2117.05"/>
    </edge>
    <edge id=":-336203_3" function="internal">
        <lane id=":-336203_3_0" index="0" speed="11.11" length="5.55" shape="2514.33,2123.01 2512.98,2123.90 2512.42,2124.92 2512.66,2126.05 2513.70,2127.29"/>
    </edge>
    <edge id=":-336203_4" function="internal">
        <lane id=":-336203_4_0" index="0" speed="13.89" length="12.91" shape="2514.33,2123.01 2510.87,2124.66 2508.51,2125.80 2506.14,2126.93 2502.68,2128.58"/>
        <lane id=":-336203_4_1" index="1" speed="13.89" length="12.91" shape="2512.90,2120.03 2509.44,2121.69 2507.08,2122.82 2504.71,2123.95 2501.26,2125.61"/>
    </edge>
    <edge id=":-336203_6" function="internal">
        <lane id=":-336203_6_0" index="0" speed="11.11" length="8.65" shape="2512.90,2120.03 2508.96,2121.24 2505.45,2120.88 2504.60,2120.35"/>
    </edge>
    <edge id=":-336203_14" function="internal">
        <lane id=":-336203_14_0" index="0" speed="11.11" length="7.01" shape="2504.60,2120.35 2502.37,2118.96 2499.71,2115.47"/>
    </edge>
    <edge id=":-336203_7" function="internal">
        <lane id=":-336203_7_0" index="0" speed="11.11" length="8.22" shape="2502.58,2113.83 2503.69,2114.97 2505.30,2115.40 2507.42,2115.10 2510.05,2114.08"/>
    </edge>
    <edge id=":-336203_8" function="internal">
        <lane id=":-336203_8_0" index="0" speed="8.33" length="17.51" shape="2502.58,2113.83 2504.84,2117.29 2507.68,2120.93 2510.75,2124.38 2513.70,2127.29"/>
    </edge>
    <edge id=":-336203_9" function="internal">
        <lane id=":-336203_9_0" index="0" speed="11.11" length="13.59" shape="2502.58,2113.83 2504.37,2117.85 2504.75,2121.15 2503.71,2123.74 2501.26,2125.61"/>
    </edge>
    <edge id=":-336203_10" function="internal">
        <lane id=":-336203_10_0" index="0" speed="11.11" length="5.09" shape="2498.41,2119.66 2499.58,2118.87 2500.19,2117.91 2500.23,2116.78 2499.71,2115.47"/>
    </edge>
    <edge id=":-336203_11" function="internal">
        <lane id=":-336203_11_0" index="0" speed="13.89" length="12.91" shape="2498.41,2119.66 2501.86,2118.00 2504.23,2116.87 2506.59,2115.73 2510.05,2114.08"/>
        <lane id=":-336203_11_1" index="1" speed="13.89" length="12.91" shape="2499.83,2122.63 2503.29,2120.98 2505.65,2119.84 2508.02,2118.71 2511.48,2117.05"/>
    </edge>
    <edge id=":-336203_13" function="internal">
        <lane id=":-336203_13_0" index="0" speed="11.11" length="7.41" shape="2499.83,2122.63 2502.84,2121.90 2506.16,2122.43 2507.01,2122.85"/>
    </edge>
    <edge id=":-336203_15" function="internal">
        <lane id=":-336203_15_0" index="0" speed="11.11" length="8.06" shape="2507.01,2122.85 2509.78,2124.22 2513.70,2127.29"/>
    </edge>
    <edge id=":-336205_0" function="internal">
        <lane id=":-336205_0_0" index="0" speed="13.89" length="29.56" shape="1940.21,2162.41 1936.47,2156.13 1931.93,2150.58 1926.96,2145.32 1921.93,2139.90"/>
        <lane id=":-336205_0_1" index="1" speed="13.89" length="29.56" shape="1943.19,2160.99 1939.37,2154.60 1934.66,2148.79 1929.52,2143.26 1924.41,2137.72"/>
    </edge>
    <edge id=":-336205_2" function="internal">
        <lane id=":-336205_2_0" index="0" speed="11.11" length="6.31" shape="1943.19,2160.99 1942.56,2158.26 1943.33,2155.70 1943.90,2155.09"/>
    </edge>
    <edge id=":-336205_12" function="internal">
        <lane id=":-336205_12_0" index="0" speed="11.11" length="6.63" shape="1943.90,2155.09 1945.52,2153.30 1949.11,2151.08"/>
    </edge>
    <edge id=":-336205_3" function="internal">
        <lane id=":-336205_3_0" index="0" speed="11.11" length="4.97" shape="1950.58,2154.03 1949.46,2154.80 1948.85,2155.75 1948.75,2156.87 1949.15,2158.17"/>
    </edge>
    <edge id=":-336205_4" function="internal">
        <lane id=":-336205_4_0" index="0" speed="11.11" length="32.36" shape="1950.58,2154.03 1945.84,2154.56 1939.90,2152.02 1932.76,2146.41 1924.41,2137.72"/>
    </edge>
    <edge id=":-336205_5" function="internal">
        <lane id=":-336205_5_0" index="0" speed="11.11" length="26.03" shape="1935.71,2130.46 1939.53,2140.50 1943.03,2147.28 1946.23,2150.81 1949.11,2151.08"/>
    </edge>
    <edge id=":-336205_6" function="internal">
        <lane id=":-336205_6_0" index="0" speed="13.89" length="31.01" shape="1935.71,2130.46 1938.57,2137.51 1942.03,2144.47 1945.70,2151.36 1949.15,2158.17"/>
        <lane id=":-336205_6_1" index="1" speed="13.89" length="31.01" shape="1932.60,2131.52 1935.48,2138.62 1938.99,2145.71 1942.70,2152.72 1946.17,2159.58"/>
    </edge>
    <edge id=":-336205_8" function="internal">
        <lane id=":-336205_8_0" index="0" speed="13.89" length="28.17" shape="1932.60,2131.52 1935.33,2141.45 1934.88,2145.79 1931.24,2144.55 1924.41,2137.72"/>
    </edge>
    <edge id=":-336205_9" function="internal">
        <lane id=":-336205_9_0" index="0" speed="11.11" length="26.88" shape="1929.38,2133.38 1936.90,2141.67 1942.70,2147.39 1946.77,2150.52 1949.11,2151.08"/>
    </edge>
    <edge id=":-336205_10" function="internal">
        <lane id=":-336205_10_0" index="0" speed="13.89" length="31.36" shape="1929.38,2133.38 1934.65,2139.15 1940.13,2145.21 1945.18,2151.54 1949.15,2158.17"/>
        <lane id=":-336205_10_1" index="1" speed="13.89" length="31.36" shape="1926.90,2135.55 1932.08,2141.21 1937.40,2147.00 1942.28,2153.07 1946.17,2159.58"/>
    </edge>
    <edge id=":-336285_0" function="internal">
        <lane id=":-336285_0_0" index="0" speed="9.72" length="15.92" shape="2579.93,971.08 2580.65,974.15 2580.27,977.65 2578.80,981.57 2576.23,985.93"/>
    </edge>
    <edge id=":-336285_1" function="internal">
        <lane id=":-336285_1_0" index="0" speed="9.72" length="15.12" shape="2579.93,971.08 2580.48,974.18 2579.21,976.82 2576.10,979.02 2571.17,980.77"/>
    </edge>
    <edge id=":-336285_2" function="internal">
        <lane id=":-336285_2_0" index="0" speed="9.72" length="9.31" shape="2570.34,977.58 2573.73,976.48 2575.95,975.25 2577.02,973.90 2576.91,972.41"/>
    </edge>
    <edge id=":-336285_3" function="internal">
        <lane id=":-336285_3_0" index="0" speed="8.33" length="17.56" shape="2570.34,977.58 2575.98,976.72 2578.85,977.83 2578.93,980.90 2576.23,985.93"/>
    </edge>
    <edge id=":-336285_4" function="internal">
        <lane id=":-336285_4_0" index="0" speed="8.33" length="6.95" shape="2573.50,984.08 2574.57,982.09 2574.54,980.87 2573.40,980.43 2571.17,980.77"/>
    </edge>
    <edge id=":-336285_5" function="internal">
        <lane id=":-336285_5_0" index="0" speed="9.72" length="12.60" shape="2573.50,984.08 2575.66,980.49 2576.95,977.35 2577.37,974.65 2576.91,972.41"/>
    </edge>
    <edge id=":-336287_0" function="internal">
        <lane id=":-336287_0_0" index="0" speed="11.11" length="6.50" shape="2444.41,1139.12 2438.04,1140.41"/>
    </edge>
    <edge id=":-336287_1" function="internal">
        <lane id=":-336287_1_0" index="0" speed="13.89" length="7.31" shape="2444.41,1139.12 2439.91,1133.35"/>
    </edge>
    <edge id=":-336287_2" function="internal">
        <lane id=":-336287_2_0" index="0" speed="11.11" length="5.53" shape="2437.77,1137.12 2439.34,1136.77 2440.22,1136.02 2440.41,1134.88 2439.91,1133.35"/>
    </edge>
    <edge id=":-336289_0" function="internal">
        <lane id=":-336289_0_0" index="0" speed="13.89" length="6.58" shape="2468.28,1151.17 2467.32,1149.27 2466.32,1147.80 2465.29,1146.77 2464.24,1146.17"/>
    </edge>
    <edge id=":-336289_1" function="internal">
        <lane id=":-336289_1_0" index="0" speed="13.89" length="7.21" shape="2468.28,1151.17 2467.70,1149.42 2467.54,1147.67 2467.80,1145.94 2468.48,1144.22"/>
    </edge>
    <edge id=":-336289_2" function="internal">
        <lane id=":-336289_2_0" index="0" speed="13.89" length="4.24" shape="2471.41,1145.74 2471.01,1146.75 2470.86,1147.77 2470.95,1148.79 2471.29,1149.83"/>
    </edge>
    <edge id=":-336289_3" function="internal">
        <lane id=":-336289_3_0" index="0" speed="13.89" length="4.24" shape="2471.41,1145.74 2470.47,1146.71 2468.96,1147.11 2467.64,1146.99"/>
    </edge>
    <edge id=":-336289_4" function="internal">
        <lane id=":-336289_4_0" index="0" speed="13.89" length="3.52" shape="2467.64,1146.99 2466.88,1146.93 2464.24,1146.17"/>
    </edge>
    <edge id=":-336291_0" function="internal">
        <lane id=":-336291_0_0" index="0" speed="11.11" length="10.24" shape="2487.62,1116.34 2485.91,1118.81 2484.70,1120.55 2483.60,1122.34 2482.17,1124.99"/>
    </edge>
    <edge id=":-336291_1" function="internal">
        <lane id=":-336291_1_0" index="0" speed="11.11" length="13.96" shape="2487.62,1116.34 2484.81,1119.50 2482.21,1120.40 2479.82,1119.04 2477.64,1115.42"/>
    </edge>
    <edge id=":-336291_2" function="internal">
        <lane id=":-336291_2_0" index="0" speed="11.11" length="5.92" shape="2480.66,1114.09 2481.58,1115.63 2482.60,1116.20 2483.70,1115.82 2484.89,1114.48"/>
    </edge>
    <edge id=":-336291_3" function="internal">
        <lane id=":-336291_3_0" index="0" speed="13.89" length="11.30" shape="2480.66,1114.09 2481.98,1117.58 2482.67,1120.56 2482.74,1123.03 2482.17,1124.99"/>
    </edge>
    <edge id=":-336291_4" function="internal">
        <lane id=":-336291_4_0" index="0" speed="13.89" length="8.39" shape="2479.24,1123.47 2479.53,1122.21 2479.36,1120.45 2478.73,1118.19 2477.64,1115.42"/>
    </edge>
    <edge id=":-336291_5" function="internal">
        <lane id=":-336291_5_0" index="0" speed="11.11" length="10.63" shape="2479.24,1123.47 2480.70,1120.77 2481.87,1118.86 2483.15,1117.01 2484.89,1114.48"/>
    </edge>
    <edge id=":-336303_0" function="internal">
        <lane id=":-336303_0_0" index="0" speed="11.11" length="5.54" shape="2253.89,730.78 2253.00,729.44 2251.99,728.88 2250.86,729.12 2249.61,730.15"/>
    </edge>
    <edge id=":-336303_1" function="internal">
        <lane id=":-336303_1_0" index="0" speed="13.89" length="19.57" shape="2253.89,730.78 2251.96,726.76 2249.65,721.96 2247.35,717.17 2245.41,713.14"/>
    </edge>
    <edge id=":-336303_2" function="internal">
        <lane id=":-336303_2_0" index="0" speed="11.11" length="8.29" shape="2253.89,730.78 2252.18,726.06 2251.89,722.81"/>
    </edge>
    <edge id=":-336303_12" function="internal">
        <lane id=":-336303_12_0" index="0" speed="11.11" length="8.98" shape="2251.89,722.81 2251.81,721.80 2252.76,718.01 2255.06,714.67"/>
    </edge>
    <edge id=":-336303_3" function="internal">
        <lane id=":-336303_3_0" index="0" speed="11.11" length="11.25" shape="2259.84,719.22 2257.70,721.91 2256.49,724.49 2256.21,726.97 2256.87,729.35"/>
    </edge>
    <edge id=":-336303_4" function="internal">
        <lane id=":-336303_4_0" index="0" speed="8.33" length="15.02" shape="2257.45,716.94 2254.37,720.17 2252.28,722.39 2250.20,724.63 2247.18,727.91"/>
    </edge>
    <edge id=":-336303_5" function="internal">
        <lane id=":-336303_5_0" index="0" speed="11.11" length="6.13" shape="2257.45,716.94 2254.15,719.38 2252.13,719.49"/>
    </edge>
    <edge id=":-336303_13" function="internal">
        <lane id=":-336303_13_0" index="0" speed="11.11" length="9.78" shape="2252.13,719.49 2251.05,719.55 2248.13,717.48 2245.41,713.14"/>
    </edge>
    <edge id=":-336303_6" function="internal">
        <lane id=":-336303_6_0" index="0" speed="11.11" length="5.51" shape="2248.39,711.71 2249.27,713.05 2250.28,713.60 2251.42,713.38 2252.67,712.39"/>
    </edge>
    <edge id=":-336303_7" function="internal">
        <lane id=":-336303_7_0" index="0" speed="13.89" length="19.57" shape="2248.39,711.71 2250.32,715.74 2252.63,720.53 2254.93,725.33 2256.87,729.35"/>
    </edge>
    <edge id=":-336303_8" function="internal">
        <lane id=":-336303_8_0" index="0" speed="11.11" length="8.22" shape="2248.39,711.71 2250.07,716.39 2250.35,719.63"/>
    </edge>
    <edge id=":-336303_14" function="internal">
        <lane id=":-336303_14_0" index="0" speed="11.11" length="9.10" shape="2250.35,719.63 2250.44,720.65 2249.47,724.49 2247.18,727.91"/>
    </edge>
    <edge id=":-336303_9" function="internal">
        <lane id=":-336303_9_0" index="0" speed="11.11" length="11.42" shape="2242.32,723.44 2244.50,720.65 2245.74,718.00 2246.04,715.50 2245.41,713.14"/>
    </edge>
    <edge id=":-336303_10" function="internal">
        <lane id=":-336303_10_0" index="0" speed="8.33" length="15.08" shape="2244.75,725.68 2247.78,722.38 2249.87,720.14 2251.97,717.91 2255.06,714.67"/>
    </edge>
    <edge id=":-336303_11" function="internal">
        <lane id=":-336303_11_0" index="0" speed="11.11" length="6.26" shape="2244.75,725.68 2248.06,723.14 2250.14,722.98"/>
    </edge>
    <edge id=":-336303_15" function="internal">
        <lane id=":-336303_15_0" index="0" speed="11.11" length="9.81" shape="2250.14,722.98 2251.18,722.90 2254.12,724.97 2256.87,729.35"/>
    </edge>
    <edge id=":1008798798_0" function="internal">
        <lane id=":1008798798_0_0" index="0" speed="8.33" length="5.03" shape="2052.47,325.65 2051.82,324.39 2050.98,323.49 2049.95,322.97 2048.73,322.82"/>
    </edge>
    <edge id=":1008798798_1" function="internal">
        <lane id=":1008798798_1_0" index="0" speed="8.33" length="10.48" shape="2052.47,325.65 2051.92,322.95 2052.64,320.97 2054.61,319.71 2057.85,319.17"/>
    </edge>
    <edge id=":1008798798_2" function="internal">
        <lane id=":1008798798_2_0" index="0" speed="8.33" length="9.41" shape="2057.93,320.82 2048.73,322.82"/>
    </edge>
    <edge id=":1008798798_3" function="internal">
        <lane id=":1008798798_3_0" index="0" speed="8.33" length="5.44" shape="2057.93,320.82 2056.39,321.11 2055.48,321.82 2055.20,322.94 2055.55,324.46"/>
    </edge>
    <edge id=":1008798798_4" function="internal">
        <lane id=":1008798798_4_0" index="0" speed="8.33" length="9.21" shape="2048.64,319.52 2057.85,319.17"/>
    </edge>
    <edge id=":1008798798_5" function="internal">
        <lane id=":1008798798_5_0" index="0" speed="8.33" length="9.11" shape="2048.64,319.52 2050.93,319.78 2052.85,320.69 2054.39,322.25 2055.55,324.46"/>
    </edge>
    <edge id=":1029432861_0" function="internal">
        <lane id=":1029432861_0_0" index="0" speed="13.89" length="16.10" shape="2670.13,323.32 2665.58,324.78 2662.47,325.79 2659.35,326.79 2654.81,328.25"/>
    </edge>
    <edge id=":1029432861_1" function="internal">
        <lane id=":1029432861_1_0" index="0" speed="13.89" length="12.47" shape="2669.12,320.18 2663.65,321.73 2659.60,322.42 2656.98,322.24 2655.77,321.20"/>
        <lane id=":1029432861_1_1" index="1" speed="13.89" length="12.47" shape="2669.12,320.18 2665.03,321.29 2661.96,321.65 2659.91,321.27 2658.90,320.15"/>
    </edge>
    <edge id=":1029432861_3" function="internal">
        <lane id=":1029432861_3_0" index="0" speed="13.89" length="2.99" shape="2665.15,318.05 2665.29,321.01 2665.13,321.26"/>
        <lane id=":1029432861_3_1" index="1" speed="13.89" length="2.99" shape="2662.03,319.10 2661.89,320.61 2661.07,321.49"/>
    </edge>
    <edge id=":1029432861_5" function="internal">
        <lane id=":1029432861_5_0" index="0" speed="13.89" length="12.85" shape="2665.13,321.26 2663.61,323.70 2660.11,326.11 2654.81,328.25"/>
    </edge>
    <edge id=":1029432861_6" function="internal">
        <lane id=":1029432861_6_0" index="0" speed="13.89" length="8.21" shape="2661.07,321.49 2660.48,322.12 2657.78,323.62 2653.79,325.11"/>
    </edge>
    <edge id=":1029432889_0" function="internal">