<?xml version="1.0" encoding="UTF-8"?>
<routes xmlns:xsi="http://www.w3.org/2001/XMLSchema-instance"
 xsi:noNamespaceSchemaLocation="http://sumo.sf.net/xsd/routes_file.xsd">

   <vTypeDistribution id="typedist01">
      <vType id="truck" accel="0.6" decel="3.5" sigma="0.5" minGap="1.0" length="4.5" maxSpeed="11.11" speedDev="0.05" impatience="0" color="0,1,0" guiShape="truck" probability="0.10" emissionClass="HDV_3_3" />
      <vType id="wagon" accel="0.7" decel="4.0" sigma="0.5" minGap="1.0" length="4.3" maxSpeed="13.89" speedDev="0.05" impatience="0" color="0,1,1" guiShape="passenger/wagon" probability="0.15" emissionClass="P_14_12" />
      <vType id="van" accel="0.8" decel="4.5" sigma="0.5" minGap="1.0" length="4.2" maxSpeed="28.0" speedDev="0.05" impatience="0" color="0,0,1" guiShape="passenger/van" probability="0.25" emissionClass="P_14_8" />
      <vType id="sedan" accel="0.9" decel="5.0" sigma="0.5" minGap="1.0" length="3.8" maxSpeed="50.0" speedDev="0.05" impatience="0" color="1,1,0" guiShape="passenger/sedan" probability="0.50" emissionClass="P_7_7" />
   </vTypeDistribution>

    <routeDistribution id="io0010100.trips.xml">
        <route edges="4491045 135177267#0 161366797#2 161366797#3 161366797#4 161366799#0 161366799#1 161366799#2 161366799#3 161366805#0 161366805#1 161366805#2 161366805#3 4693667#0 4693667#1 35551375#0 35551375#1 127674516 4491308#0 4491308#1 4491308#2 4491308#3 4491308#4 4491308#5 4491308#6 190803736#0 121854794#3 4700202 4706304 37988913 39691470 161451893 242994612#0 242994612#1 242994612#2 242994612#3 242994612#4 4490262 212085574 8178434 176240974"/>
        <route edges="4491045 135177267#0 161366797#2 161366797#3 161366797#4 161366799#0 161366799#1 161366799#2 161366799#3 161366805#0 161366805#1 161366805#2 161366805#3 4693667#0 4693667#1 35551375#0 35551375#1 127674516 4491308#0 4491363 37988925 4491336#0 4491337 127674510#2 127674510#3 4706304 37988913 39691469#0 39691469#1 17404226 242994612#3 242994612#4 4490262 212085574 8178434 176240974"/>
        <route edges="4491045 135177267#0 161366797#2 161366797#3 161366797#4 161366799#0 161366799#1 161366799#2 161366799#3 161366805#0 161366805#1 161366805#2 161366805#3 4693667#0 4693667#1 35551375#0 35551375#1 127674517 127674520 137341440 252693052 251962175 4231109 233545452#0 233545452#1 233545452#2 233545451 205673184 88920324 121536294 167816643 4490202 124626938#0 124626938#1 129019106 212085581#0 212085581#1 177560532 176240974"/>
        <route edges="4491045 135177267#0 161366797#2 161366797#3 161366797#4 161366799#0 161366799#1 161366799#2 161366799#3 161366805#0 161366805#1 161366805#2 161366805#3 4693667#0 4693667#1 35551375#0 35551375#1 127674517 127674520 137341440 252693052 251962175 4231109 233545452#0 233545452#1 233545452#2 233545451 233545450"/>
        <route edges="4491045 135177267#0 161366797#2 161366797#3 161366797#4 161366799#0 161366799#1 161366799#2 161366799#3 161366805#0 161366805#1 161366805#2 161366805#3 4693667#0 4693667#1 35551375#0 35551375#1 127674517 127674520 137341440 252693052 251962175 4231109 233545452#0 233545452#1 233545452#2 233545453#0 233545453#1 233545453#2 233545453#3 41568989 41568990 42277132 17404377#1 41516157 40297973 40297987 4490262 212085574 8178434 176240974"/>
        <route edges="4491045 135177267#0 161366797#2 161366797#3 161366797#4 161366799#0 161366799#1 161366799#2 161366799#3 161366805#0 161366805#1 161366805#2 161366805#3 4693667#0 4693667#1 4491361#0 4491361#1 129464826 206151483 4689695 251962175 4231109 233545452#0 233545452#1 233545452#2 233545451 233545450"/>
        <route edges="4491045 178204662#1 252592791 135200004 155195605"/>
        <route edges="4491045 178204662#1 252592791 43055851#0 43055851#1 43055851#2 43055851#3 43055851#4 213548270 178204656 40924323#0 40924323#1 40924323#2 40924323#3 135200001#0 135200001#1 135200001#2 135200000 138481227#0 138481227#1 138481227#2 43022638 138481221#0 138481221#1 138481221#2 -138481215#2 -138481215#1 -138481215#0"/>
    </routeDistribution>
    <routeDistribution id="io0020100.trips.xml">
        <route edges="22884861 -112791734 -4693770#1 -4693770#0 220019531 35551373#0 130196241 4693667#1 35551375#0 35551375#1 127674516 4491308#0 4491308#1 4491308#2 4491308#3 4491308#4 4491308#5 4491308#6 190803736#0 121854794#3 4700202 4706304 37988913 39691470 161451893 242994612#0 242994612#1 242994612#2 242994612#3 242994612#4 4490262 212085574 8178434 176240974"/>
        <route edges="22884861 -112791734 -4693770#1 -4693770#0 220019531 35551373#0 130196241 4693667#1 35551375#0 35551375#1 127674517 127674520 137341440 252693052 251962175 4231109 233545452#0 233545452#1 233545452#2 233545451 205673184 88920324 121536294 167816643 4490202 124626938#0 124626938#1 129019106 212085581#0 212085581#1 177560532 176240974"/>
        <route edges="22884861 -112791734 -4693770#1 -4693770#0 220019531 35551373#0 130196241 4693667#1 35551375#0 35551375#1 127674517 127674520 137341440 252693052 251962175 4231109 233545452#0 233545452#1 233545452#2 233545451 233545450"/>
        <route edges="22884861 -112791734 -4693770#1 -4693770#0 220019531 35551373#0 130196241 4693667#1 4491361#0 4491361#1 129464826 206151483 4689695 251962175 4231109 233545452#0 233545452#1 233545452#2 233545451 233545450"/>
        <route edges="22884861 41527698#0 41527698#1 41658690#0 41658690#1 41658690#2 41658690#3 213548260 213548269#0 213548269#1 213548269#2 213548269#3 213548269#4 155195605"/>
        <route edges="22884861 41527698#0 41527698#1 41658690#0 41658690#1 41658690#2 41658690#3 213548270 178204656 40924323#0 40924323#1 40924323#2 40924323#3 135200001#0 135200001#1 135200001#2 135200000 138481227#0 138481227#1 138481227#2 43022638 138481221#0 138481221#1 138481221#2 -138481215#2 -138481215#1 -138481215#0"/>
        <route edges="22884861 4352795 4353030 -252558066#0 4490987#0 4486542#0 4486542#1 4486542#2 4486542#3 135200003#5 135200003#6 121854794#1 121854794#2 121854794#3 4700202 4706304 37988913 39691469#0 39691469#1 17404226 242994612#3 242994612#4 4490262 212085574 8178434 176240974"/>
        <route edges="22884861 4352795 4353030 -252558066#0 4490987#0 4486542#0 4486542#1 4486542#2 4486542#3 4486542#4 35205843#0 35205843#1 35205843#2 35205843#3 135299053 24225426 242118917#0 242118917#1 242118920#0 242118920#1 242118920#2 35003962#0 35003962#1 35003962#2 35003962#3 42500883 43054916 242994612#0 242994612#1 242994612#2 242994612#3 242994612#4 4490262 212085574 8178434 176240974"/>
        <route edges="22884861 4352795 4353030 -252558066#0 4490987#0 4486542#0 4486542#1 4486542#2 4486542#3 4486542#4 35205843#0 35205843#1 35205843#2 35205843#3 135299059#0 138007081#0 138007081#1 138007081#2 138007081#3 138007081#4 41567779#0 41567779#1 138481198#0 138481198#1 138481198#2 138481221#2 -138481215#2 -138481215#1 -138481215#0"/>
        <route edges="22884861 4352795 4353030 -252558066#0 4490987#0 4486542#0 4486542#1 4486542#2 4486542#3 4486542#4 35205843#0 35205843#1 35205843#2 4490151 35205844#1 4491235 138007081#2 138007081#3 138007081#4 41567779#0 41567779#1 138481198#0 138481198#1 138481198#2 138481221#2 -138481215#2 -138481215#1 -138481215#0"/>
        <route edges="22884861 4352795 4353030 -252558066#0 4490987#0 4486542#0 4486542#1 4486542#2 4486542#3 4486542#4 35205843#0 41208826#0 41208826#1 41208826#2 41208826#3 4491058#1 4491058#2 138313429#2 43022638 138481221#0 138481221#1 138481221#2 -138481215#2 -138481215#1 -138481215#0"/>
    </routeDistribution>
    <routeDistribution id="io0030100.trips.xml">
        <route edges="127674505 137341438 127674510#0 127674510#1 127674510#2 127674510#3 4706304 37988913 39691469#0 39691469#1 17404226 242994612#3 242994612#4 4490262 212085574 8178434 176240974"/>
        <route edges="127674505 137341438 127674510#0 38213896 24354555#0 24354555#1 233545451 205673184 88920324 121536294 167816643 4490202 124626938#0 124626938#1 129019106 212085581#0 212085581#1 177560532 176240974"/>
        <route edges="127674505 137341438 127674510#0 38213896 24354555#0 24354555#1 233545451 233545450"/>
        <route edges="127674505 137341438 127674510#0 38213896 24354555#0 24354555#1 233545453#0 233545453#1 233545453#2 233545453#3 41568989 41568990 42277132 17404377#1 41516157 40297973 40297987 4490262 212085574 8178434 176240974"/>
        <route edges="127674505 137341438 35477782 23089605 42979124 220845361 35551373#0 35551373#1 -161366805#3 -161366805#2 -161366805#1 -161366805#0 -161366799#3 -161366799#2 -161366799#1 -161366799#0 41517361#0 41517361#1 41517361#2 41517361#3 41517361#4 135200004 155195605"/>
        <route edges="127674505 137341438 35477782 23089605 4491309 35551374 4485702#1 4485702#2 129712690 155431870 129712683 129712685 1767273#1 68085816#2 4494027#0 4486542#2 4486542#3 4486542#4 35205843#0 35205843#1 35205843#2 35205843#3 135299059#0 138007081#0 138007081#1 138007081#2 138007081#3 138007081#4 41567779#0 41567779#1 138481198#0 138481198#1 138481198#2 138481221#2 -138481215#2 -138481215#1 -138481215#0"/>
        <route edges="127674505 137341438 35477782 23089605 4491309 35551374 4485702#1 4485702#2 129712690 155431870 129712683 129712685 1767273#1 68085816#2 4494027#0 4486542#2 4486542#3 4486542#4 35205843#0 35205843#1 35205843#2 4490151 35205844#1 4491235 138007081#2 138007081#3 138007081#4 41567779#0 41567779#1 138481198#0 138481198#1 138481198#2 138481221#2 -138481215#2 -138481215#1 -138481215#0"/>
        <route edges="127674505 137341438 35477782 23089605 4491309 35551374 4498215#0 129881110#1 129881110#2 -4491325 -161366805#0 -161366799#3 -161366799#2 -161366799#1 -161366799#0 41517361#0 41517361#1 41517361#2 41517361#3 41517361#4 135200004 155195605"/>
        <route edges="127674505 137341438 35477782 23089605 4491309 35551374 4498215#0 4498215#1 4490987#0 4486542#0 4486542#1 4486542#2 4486542#3 4486542#4 35205843#0 41208826#0 41208826#1 41208826#2 41208826#3 4491058#1 4491058#2 138313429#2 43022638 138481221#0 138481221#1 138481221#2 -138481215#2 -138481215#1 -138481215#0"/>
        <route edges="127674505 137341438 35477782 4491308#0 4491308#1 4491308#2 4491308#3 4491308#4 4491308#5 4491308#6 190803736#0 190803736#1 121854793#1 121854793#2 121854793#3 122041454#1 122041454#2 39093604#0 39093604#1 39093604#2 39093604#3 39093604#4 138481227#0 138481227#1 138481227#2 43022638 138481221#0 138481221#1 138481221#2 -138481215#2 -138481215#1 -138481215#0"/>
        <route edges="127674505 137341438 35477782 4491308#0 4491308#1 4491308#2 4491308#3 4491308#4 4491308#5 4491308#6 190803736#0 190803736#1 121854793#1 121854793#2 121854793#3 122041454#1 35205843#0 35205843#1 35205843#2 35205843#3 135299059#0 138007081#0 138007081#1 138007081#2 138007081#3 138007081#4 41567779#0 41567779#1 138481198#0 138481198#1 138481198#2 138481221#2 -138481215#2 -138481215#1 -138481215#0"/>
        <route edges="127674505 137341440 252693052 251962175 4231109 233545452#0 233545452#1 233545452#2 233545451 205673184 88920324 121536294 167816643 4490202 124626938#0 124626938#1 129019106 212085581#0 212085581#1 177560532 176240974"/>
        <route edges="127674505 137341440 252693052 251962175 4231109 233545452#0 233545452#1 233545452#2 233545451 233545450"/>
    </routeDistribution>
    <routeDistribution id="io0040100.trips.xml">
        <route edges="42975208 41574225 88920324 121536294 167816643 177560544 167816642 4700201#0 4700201#1 20153356#0 20153356#1 20153356#2 39691471 121854793#0 121854793#1 121854793#2 121854793#3 122041454#1 122041454#2 39093604#0 39093604#1 39093604#2 39093604#3 39093604#4 138481227#0 138481227#1 138481227#2 43022638 138481221#0 138481221#1 138481221#2 -138481215#2 -138481215#1 -138481215#0"/>
        <route edges="42975208 41574225 88920324 121536294 167816643 177560544 167816642 4700201#0 4700201#1 20153356#0 20153356#1 20153356#2 39691471 121854793#0 121854793#1 121854793#2 121854793#3 122041454#1 35205843#0 35205843#1 35205843#2 35205843#3 135299059#0 138007081#0 138007081#1 138007081#2 138007081#3 138007081#4 41567779#0 41567779#1 138481198#0 138481198#1 138481198#2 138481221#2 -138481215#2 -138481215#1 -138481215#0"/>
        <route edges="42975208 41574225 88920324 121536294 167816643 177560544 167816642 4700201#0 4700201#1 20153356#0 20153356#1 20153356#2 39691471 121854793#0 121854793#1 121854793#2 121854793#3 122041454#1 35205843#0 41208826#0 41208826#1 41208826#2 41208826#3 4491058#1 4491058#2 138313429#2 43022638 138481221#0 138481221#1 138481221#2 -138481215#2 -138481215#1 -138481215#0"/>
        <route edges="42975208 41574225 88920324 121536294 167816643 177560544 167816642 4700201#0 4700201#1 20153356#0 20153356#1 -40987613 -26321760#1 -26321760#0 23089367#0 23089367#1 35839772#1 4492350#0 4492350#1 4492350#2 41679268 4491237 177035828 138007081#0 138007081#1 138007081#2 138007081#3 138007081#4 41567779#0 41567779#1 138481198#0 138481198#1 138481198#2 138481221#2 -138481215#2 -138481215#1 -138481215#0"/>
        <route edges="42975208 41574225 88920324 121536294 167816643 4490202 124626938#0 124626938#1 -107898612#1 4490191 212085581#1 177560532 176240974"/>
        <route edges="42975208 41574225 88920324 121536294 167816643 4490202 124626938#0 124626938#1 129019106 212085581#0 212085581#1 177560532 176240974"/>
        <route edges="42975208 41574225 88920324 39749727 152127340 233545450"/>
        <route edges="42975208 41574225 88920324 39749727 152127340 -233545451 -233545452#2 -233545452#1 -233545452#0 233545458 129464802#1 129464802#2 35477782 23089605 42979124 220845361 35551373#0 35551373#1 -161366805#3 -161366805#2 -161366805#1 -161366805#0 -161366799#3 -161366799#2 -161366799#1 -161366799#0 41517361#0 41517361#1 41517361#2 41517361#3 41517361#4 135200004 155195605"/>
        <route edges="42975208 41574225 88920324 39749727 152127340 -233545451 -233545452#2 -233545452#1 -233545452#0 233545458 129464802#1 129464802#2 35477782 23089605 4491309 35551374 4498215#0 129881110#1 129881110#2 -4491325 -161366805#0 -161366799#3 -161366799#2 -161366799#1 -161366799#0 41517361#0 41517361#1 41517361#2 41517361#3 41517361#4 135200004 155195605"/>
        <route edges="42975208 41574225 88920324 39749727 152127340 -233545451 233545453#0 233545453#1 233545453#2 233545453#3 41568989 -39691461 23089367#0 23089367#1 35839772#1 4492350#0 4492350#1 4492350#2 41679268 4491237 177035828 138007081#0 138007081#1 138007081#2 138007081#3 138007081#4 41567779#0 41567779#1 138481198#0 138481198#1 138481198#2 138481221#2 -138481215#2 -138481215#1 -138481215#0"/>
    </routeDistribution>
    <routeDistribution id="io0050100.trips.xml">
        <route edges="162177597#0 162177597#1 35583988#0 35583988#1 35583988#2 233545452#0 233545452#1 233545452#2 233545451 205673184 88920324 121536294 167816643 4490202 124626938#0 124626938#1 -107898612#1 4490191 212085581#1 177560532 176240974"/>
        <route edges="162177597#0 162177597#1 35583988#0 35583988#1 35583988#2 233545452#0 233545452#1 233545452#2 233545451 205673184 88920324 121536294 167816643 4490202 124626938#0 124626938#1 129019106 212085581#0 212085581#1 177560532 176240974"/>
        <route edges="162177597#0 162177597#1 35583988#0 35583988#1 35583988#2 233545452#0 233545452#1 233545452#2 233545451 233545450"/>
        <route edges="162177597#0 162177597#1 35583988#0 35583988#1 35583988#2 233545452#0 233545452#1 233545452#2 233545453#0 233545453#1 233545453#2 233545453#3 41568989 -39691461 23089367#0 23089367#1 35839772#1 4492350#0 4492350#1 4492350#2 41679268 4491237 177035828 138007081#0 138007081#1 138007081#2 138007081#3 138007081#4 41567779#0 41567779#1 138481198#0 138481198#1 138481198#2 138481221#2 -138481215#2 -138481215#1 -138481215#0"/>
        <route edges="162177597#0 162177597#1 35583988#0 35583988#1 35583988#2 233545452#0 233545452#1 233545452#2 233545453#0 233545453#1 233545453#2 233545453#3 41568989 41568990 42277132 17404377#1 41516157 40297973 40297987 4490262 212085574 8178434 176240974"/>
        <route edges="162177597#0 162177597#1 35583988#0 35583988#1 35583988#2 233545458 129464802#1 129464802#2 35477782 23089605 42979124 220845361 35551373#0 35551373#1 -161366805#3 -161366805#2 -161366805#1 -161366805#0 -161366799#3 -161366799#2 -161366799#1 -161366799#0 41517361#0 41517361#1 41517361#2 41517361#3 41517361#4 135200004 155195605"/>
        <route edges="162177597#0 162177597#1 35583988#0 35583988#1 35583988#2 233545458 129464802#1 129464802#2 35477782 23089605 4491309 35551374 4498215#0 129881110#1 -42979122#1 -42979122#0 -43055852#2 -43055852#1 -43055852#0 35276319 43055757#0 43055757#1 213548269#0 213548269#1 213548269#2 213548269#3 213548269#4 155195605"/>
        <route edges="162177597#0 162177597#1 35583988#0 35583988#1 35583988#2 233545458 129464802#1 129464802#2 35477782 23089605 4491309 35551374 4498215#0 4498215#1 4490987#0 4486542#0 4486542#1 4486542#2 4486542#3 4486542#4 35205843#0 41208826#0 41208826#1 41208826#2 41208826#3 4491058#1 4491058#2 138313429#2 43022638 138481221#0 138481221#1 138481221#2 -138481215#2 -138481215#1 -138481215#0"/>
        <route edges="162177597#0 162177597#1 35583988#0 35583988#1 35583988#2 233545458 129464802#1 129464802#2 35477782 4491308#0 4491308#1 4491308#2 4491308#3 4491308#4 4491308#5 4491308#6 190803736#0 190803736#1 121854793#1 121854793#2 121854793#3 122041454#1 122041454#2 39093604#0 39093604#1 39093604#2 39093604#3 39093604#4 138481227#0 138481227#1 138481227#2 43022638 138481221#0 138481221#1 138481221#2 -138481215#2 -138481215#1 -138481215#0"/>
        <route edges="162177597#0 162177597#1 35583988#0 35583988#1 35583988#2 233545458 129464802#1 129464802#2 35477782 4491308#0 4491308#1 4491308#2 4491308#3 4491308#4 4491308#5 4491308#6 190803736#0 190803736#1 121854793#1 121854793#2 121854793#3 122041454#1 35205843#0 35205843#1 35205843#2 35205843#3 135299059#0 138007081#0 138007081#1 138007081#2 138007081#3 138007081#4 41567779#0 41567779#1 138481198#0 138481198#1 138481198#2 138481221#2 -138481215#2 -138481215#1 -138481215#0"/>
    </routeDistribution>
    <routeDistribution id="io0060100.trips.xml">
        <route edges="-4700200 110655211 20153356#0 20153356#1 20153356#2 37988913 39691469#0 39691469#1 17404226 242994612#3 242994612#4 4490262 212085574 8178434 176240974"/>
        <route edges="-4700200 110655211 20153356#0 20153356#1 20153356#2 37988913 39691470 161451893 242994612#0 242994612#1 242994612#2 242994612#3 242994612#4 4490262 212085574 8178434 176240974"/>
        <route edges="-4700200 110655211 20153356#0 20153356#1 20153356#2 39691471 121854793#0 121854793#1 121854793#2 121854793#3 122041454#1 122041454#2 39093604#0 39093604#1 39093604#2 39093604#3 39093604#4 138481227#0 138481227#1 138481227#2 43022638 138481221#0 138481221#1 138481221#2 -138481215#2 -138481215#1 -138481215#0"/>
        <route edges="-4700200 110655211 20153356#0 20153356#1 20153356#2 39691471 121854793#0 121854793#1 121854793#2 121854793#3 122041454#1 35205843#0 35205843#1 35205843#2 35205843#3 135299059#0 138007081#0 138007081#1 138007081#2 138007081#3 138007081#4 41567779#0 41567779#1 138481198#0 138481198#1 138481198#2 138481221#2 -138481215#2 -138481215#1 -138481215#0"/>
        <route edges="-4700200 110655211 20153356#0 20153356#1 20153356#2 39691471 121854793#0 121854793#1 121854793#2 121854793#3 122041454#1 35205843#0 41208826#0 41208826#1 41208826#2 41208826#3 4491058#1 4491058#2 138313429#2 43022638 138481221#0 138481221#1 138481221#2 -138481215#2 -138481215#1 -138481215#0"/>
        <route edges="-4700200 110655211 20153356#0 20153356#1 20153356#2 39691471 121854793#0 121854793#1 121854793#2 121854793#3 122041454#1 -4486542#4 -4486542#3 -4486542#2 4494027#1 4494027#2 -4490982#1 -4490982#0 -23089542#3 -23089542#2 -23089542#1 -43055852#0 35276319 43055757#0 43055757#1 213548269#0 213548269#1 213548269#2 213548269#3 213548269#4 155195605"/>
        <route edges="-4700200 110655211 20153356#0 20153356#1 20153356#2 39691471 121854793#0 121854793#1 190803735#0 190803735#1 -4491308#6 -4491308#5 -4491308#4 -4491308#3 -4491308#2 -4491308#1 -4491308#0 23089605 42979124 220845361 35551373#0 35551373#1 -161366805#3 -161366805#2 -161366805#1 -161366805#0 -161366799#3 -161366799#2 -161366799#1 -161366799#0 41517361#0 41517361#1 41517361#2 41517361#3 41517361#4 135200004 155195605"/>
        <route edges="-4700200 110655211 20153356#0 20153356#1 20153356#2 39691471 4706306#2 4700202 -127674510#3 -127674510#2 -127674510#1 38213896 24354555#0 24354555#1 233545451 233545450"/>
        <route edges="-4700200 110655211 20153356#0 20153356#1 20153356#2 39691471 4706306#2 4700202 39691472 121752189#0 121752189#1 121752189#2 20151422#1 167816644 5179080 152127340 233545450"/>
        <route edges="-4700200 110655211 20153356#0 20153356#1 -40987613 -26321760#1 -26321760#0 23089367#0 23089367#1 35839772#1 4492350#0 4492350#1 4492350#2 41679268 4491237 177035828 138007081#0 138007081#1 138007081#2 138007081#3 138007081#4 41567779#0 41567779#1 138481198#0 138481198#1 138481198#2 138481221#2 -138481215#2 -138481215#1 -138481215#0"/>
        <route edges="-4700200 110655211 20153356#0 20153356#1 -40987613 -26321760#1 -26321760#0 39691461 -41568989 -4741130 -233545453#2 -233545453#1 -233545453#0 233545451 233545450"/>
        <route edges="-4700200 110655211 20153356#0 20153356#1 -40987613 -26321760#1 -26321760#0 39691461 41568990 42277132 17404377#1 41516157 40297973 40297987 4490262 212085574 8178434 176240974"/>
    </routeDistribution>
    <routeDistribution id="io0070100.trips.xml">
        <route edges="-124626946 124626938#0 124626938#1 -107898612#1 4490191 212085581#1 177560532 176240974"/>
        <route edges="-124626946 124626938#0 124626938#1 129019106 212085581#0 212085581#1 177560532 176240974"/>
        <route edges="-124626946 -124626943 20151631 167816642 238036443 167816644 5179080 152127340 233545450"/>
        <route edges="-124626946 -124626943 20151631 167816642 238036443 167816644 5179080 152127340 -233545451 -233545452#2 -233545452#1 -233545452#0 233545458 129464802#1 129464802#2 35477782 23089605 42979124 220845361 35551373#0 35551373#1 -161366805#3 -161366805#2 -161366805#1 -161366805#0 -161366799#3 -161366799#2 -161366799#1 -161366799#0 41517361#0 41517361#1 41517361#2 41517361#3 41517361#4 135200004 155195605"/>
        <route edges="-124626946 -124626943 20151631 167816642 4700201#0 4700201#1 20153356#0 20153356#1 20153356#2 39691471 121854793#0 121854793#1 121854793#2 121854793#3 122041454#1 122041454#2 39093604#0 39093604#1 39093604#2 39093604#3 39093604#4 138481227#0 138481227#1 138481227#2 43022638 138481221#0 138481221#1 138481221#2 -138481215#2 -138481215#1 -138481215#0"/>
        <route edges="-124626946 -124626943 20151631 167816642 4700201#0 4700201#1 20153356#0 20153356#1 20153356#2 39691471 121854793#0 121854793#1 190803735#0 190803735#1 -4491308#6 -4491308#5 -4491308#4 -4491308#3 -4491308#2 -4491308#1 -4491308#0 23089605 42979124 220845361 35551373#0 35551373#1 -161366805#3 -161366805#2 -161366805#1 -161366805#0 -161366799#3 -161366799#2 -161366799#1 -161366799#0 41517361#0 41517361#1 41517361#2 41517361#3 41517361#4 135200004 155195605"/>
        <route edges="-124626946 -124626943 -41568983#1 -41568983#0 -39691461 23089367#0 23089367#1 27149534#2 30628863#1 -37988913 -4706304 -127674510#3 -127674510#2 -127674510#1 -127674510#0 35477782 23089605 4491309 35551374 4498215#0 129881110#1 129881110#2 -4491325 -161366805#0 -161366799#3 -161366799#2 -161366799#1 -161366799#0 41517361#0 41517361#1 41517361#2 41517361#3 41517361#4 135200004 155195605"/>
        <route edges="-124626946 -124626943 -41568983#1 -41568983#0 -39691461 23089367#0 23089367#1 35839772#1 4492350#0 4492350#1 4492350#2 41679268 4491237 177035828 138007081#0 138007081#1 138007081#2 138007081#3 138007081#4 41567779#0 41567779#1 138481198#0 138481198#1 138481198#2 138481221#2 -138481215#2 -138481215#1 -138481215#0"/>
    </routeDistribution>
    <routeDistribution id="io0080100.trips.xml">
        <route edges="4968533 124653875 124653872#0 124653872#1 124653872#2 124653872#3 214237334 125521915 125521916#1 125521917#1 125521917#2 135299048#0 135299048#1 177035828 138007081#0 138007081#1 138007081#2 138007081#3 138007081#4 41567779#0 41567779#1 138481198#0 138481198#1 138481198#2 138481221#2 -138481215#2 -138481215#1 -138481215#0"/>
        <route edges="4968533 124653875 124653872#0 124653872#1 124653872#2 124653872#3 214237334 167816645#2 168024440 -39691470 -37988913 39691471 121854793#0 121854793#1 190803735#0 190803735#1 -4491308#6 -4491308#5 -4491308#4 -4491308#3 -4491308#2 -4491308#1 -4491308#0 23089605 42979124 220845361 35551373#0 35551373#1 -161366805#3 -161366805#2 -161366805#1 -161366805#0 -161366799#3 -161366799#2 -161366799#1 -161366799#0 41517361#0 41517361#1 41517361#2 41517361#3 41517361#4 135200004 155195605"/>
        <route edges="4968533 124653875 124653872#0 124653872#1 124653872#2 124653872#3 214237334 167816645#2 168024440 -39691470 -37988913 -4706304 -127674510#3 -127674510#2 -127674510#1 -127674510#0 35477782 23089605 4491309 35551374 4498215#0 129881110#1 129881110#2 -4491325 -161366805#0 -161366799#3 -161366799#2 -161366799#1 -161366799#0 41517361#0 41517361#1 41517361#2 41517361#3 41517361#4 135200004 155195605"/>
        <route edges="4968533 176356748#1 41869017 212085585 41516158#0 41516158#1 124626942 20151631 167816642 238036443 167816644 5179080 152127340 233545450"/>
        <route edges="4968533 176356748#1 41869017 212085585 41516158#0 41516158#1 124626942 20151631 167816642 238036443 167816644 5179080 152127340 -233545451 -233545452#2 -233545452#1 -233545452#0 233545458 129464802#1 129464802#2 35477782 23089605 42979124 220845361 35551373#0 35551373#1 -161366805#3 -161366805#2 -161366805#1 -161366805#0 -161366799#3 -161366799#2 -161366799#1 -161366799#0 41517361#0 41517361#1 41517361#2 41517361#3 41517361#4 135200004 155195605"/>
        <route edges="4968533 176356748#1 8178434 176240974"/>
    </routeDistribution>
    <routeDistribution id="io0090100.trips.xml">
        <route edges="-163846772 -178016688 -176555517#1 -138615451#3 -138615451#2 -138615451#1 -138615451#0 -4491235 -35205844#1 -35205844#0 -42037282#0 39323805#0 39323805#1 39323805#2 39323805#3 141889092 37988904#0 37988904#1 27149534#0 27149534#1 27149534#2 30628863#1 39691469#0 39691469#1 17404226 242994612#3 242994612#4 4490262 212085574 8178434 176240974"/>
        <route edges="-163846772 -178016688 -176555517#1 -138615451#3 -138615451#2 -138615451#1 -138615451#0 -4491235 -35205844#1 -35205844#0 -42037282#0 39323805#0 39323805#1 39323805#2 39323805#3 141889092 37988904#0 37988904#1 37988904#2 23089372#1 37988905#0 37988905#1 -4741130 -233545453#2 -233545453#1 -233545453#0 233545451 233545450"/>
        <route edges="-163846772 -178016688 -176555517#1 -138615451#3 -138615451#2 -138615451#1 -138615451#0 -4491235 -35205844#1 -35205844#0 4492780#0 4492780#1 -4492792#1 135200003#4 135200003#5 135200003#6 121854794#1 121854794#2 121854794#3 4700202 -127674510#3 -127674510#2 203816058 24354555#0 24354555#1 233545451 233545450"/>
        <route edges="-163846772 -178016688 -176555517#1 -138615451#3 -138615451#2 -138615451#1 -138615451#0 -4491235 -35205844#1 -35205844#0 4492780#0 4492780#1 -4492792#1 135200003#4 135200003#5 135200003#6 121854794#1 121854794#2 121854794#3 4700202 39691472 121752189#0 121752189#1 121752189#2 20151422#1 167816644 5179080 152127340 233545450"/>
        <route edges="-163846772 -178016688 -176555517#1 -138615451#3 -138615451#2 -138615451#1 -138615451#0 -4491235 41568980 135299053 24225426 242118917#0 242118917#1 242118920#0 242118920#1 242118920#2 35003962#0 35003962#1 35003962#2 35003962#3 42500883 43054916 242994612#0 242994612#1 242994612#2 242994612#3 242994612#4 4490262 212085574 8178434 176240974"/>
        <route edges="-163846772 -178016688 -176555517#1 -176555517#0 -138481203 4743460#0 4743460#1 138481198#2 138481198#3 138481229#1 138481229#2 43022634 41208825#0 41208825#1 39093517 40923732#0 40923732#1 40924331#1 40924331#2 41208822#0 135199995 135200006#0 135200006#1 43055757#1 213548269#0 213548269#1 213548269#2 213548269#3 213548269#4 155195605"/>
        <route edges="-163846772 -178016688 -176555517#1 -176555517#0 -138481203 4743460#0 4743460#1 138481198#2 138481221#2 -138481215#2 -138481215#1 -138481215#0"/>
    </routeDistribution>
    <routeDistribution id="io0100100.trips.xml">
        <route edges="138481215#0 138481215#1 138481215#2 138481229#0 138481229#1 138481229#2 -213548271#1 61279881#0 61279881#1 61279881#2 130381247 212472726#3 130381251 135200003#0 135200003#1 135200003#2 135200003#3 135200003#4 135200003#5 135200003#6 121854794#1 121854794#2 121854794#3 4700202 -127674510#3 -127674510#2 203816058 24354555#0 24354555#1 233545451 233545450"/>
        <route edges="138481215#0 138481215#1 138481215#2 138481229#0 138481229#1 138481229#2 -213548271#1 61279881#0 61279881#1 61279881#2 130381247 212472726#3 130381251 135200003#0 135200003#1 135200003#2 135200003#3 135200003#4 135200003#5 135200003#6 121854794#1 121854794#2 121854794#3 4700202 4706304 37988913 39691469#0 39691469#1 17404226 242994612#3 242994612#4 4490262 212085574 8178434 176240974"/>
        <route edges="138481215#0 138481215#1 138481215#2 138481229#0 138481229#1 138481229#2 43022634 41208825#0 41208825#1 39093517 40923732#0 40923732#1 40924331#1 40924331#2 41208822#0 135199995 135200006#0 135200006#1 43055757#1 213548269#0 213548269#1 213548269#2 213548269#3 213548269#4 155195605"/>
        <route edges="138481215#0 138481215#1 138481215#2 138481229#0 138481229#1 79567405#1 138481221#1 138481221#2 -138481215#2 -138481215#1 -138481215#0"/>
        <route edges="138481215#0 138481215#1 138481215#2 138481229#0 138481229#1 79567405#1 79567405#2 79567405#3 79567405#4 79567405#5 79567405#6 176555489 138007087 -41568991 -42037282#2 -42037282#1 -42037282#0 39323805#0 39323805#1 39323805#2 39323805#3 141889092 37988904#0 37988904#1 37988904#2 23089372#1 37988905#0 37988905#1 -4741130 -233545453#2 -233545453#1 -233545453#0 233545451 233545450"/>