<?xml version="1.0" encoding="UTF-8"?>

<!-- generated on Fri Jan 10 17:16:54 2014 by SUMO netconvert Version 0.19.0
<?xml version="1.0" encoding="UTF-8"?>

<configuration xmlns:xsi="http://www.w3.org/2001/XMLSchema-instance" xsi:noNamespaceSchemaLocation="http://sumo-sim.org/xsd/netconvertConfiguration.xsd">

    <input>
        <connection-files value="stockholm.con.xml"/>
        <type-files value="stockholm.typ.xml"/>
        <osm-files value="stockholm.osm"/>
    </input>

    <output>
        <output-file value="stockholm.net.xml"/>
        <output.street-names value="true"/>
        <output.original-names value="true"/>
    </output>

    <projection>
        <proj.utm value="true"/>
    </projection>

    <tls_building>
        <tls.join value="true"/>
    </tls_building>

    <edge_removal>
        <remove-edges.isolated value="true"/>
    </edge_removal>

    <processing>
        <no-turnarounds value="true"/>
        <geometry.remove value="true"/>
        <junctions.join value="false"/>
    </processing>

</configuration>
-->

<net version="0.13" xmlns:xsi="http://www.w3.org/2001/XMLSchema-instance" xsi:noNamespaceSchemaLocation="http://sumo-sim.org/xsd/net_file.xsd">

    <location netOffset="-331461.36,-6580467.18" convBoundary="0.00,0.00,2279.27,1867.04" origBoundary="18.036092,59.329786,18.077222,59.346597" projParameter="+proj=utm +zone=34 +ellps=WGS84 +datum=WGS84 +units=m +no_defs"/>

    <edge id=":10463610_0" function="internal">
        <lane id=":10463610_0_0" index="0" speed="13.89" length="9.56" shape="604.17,1185.76 600.26,1194.48"/>
    </edge>
    <edge id=":10463610_1" function="internal">
        <lane id=":10463610_1_0" index="0" speed="11.11" length="7.18" shape="604.17,1185.76 602.66,1188.17 600.75,1189.52 598.76,1189.76"/>
    </edge>
    <edge id=":10463610_6" function="internal">
        <lane id=":10463610_6_0" index="0" speed="11.11" length="3.18" shape="598.76,1189.76 598.43,1189.80 595.70,1189.01"/>
    </edge>
    <edge id=":10463610_2" function="internal">
        <lane id=":10463610_2_0" index="0" speed="11.11" length="5.01" shape="597.05,1186.00 598.37,1186.38 599.50,1186.25 600.42,1185.60 601.15,1184.43"/>
    </edge>
    <edge id=":10463610_3" function="internal">
        <lane id=":10463610_3_0" index="0" speed="11.11" length="10.35" shape="597.05,1186.00 599.45,1187.52 600.79,1189.44 601.06,1191.76 600.26,1194.48"/>
    </edge>
    <edge id=":10463610_4" function="internal">
        <lane id=":10463610_4_0" index="0" speed="11.11" length="5.02" shape="597.26,1193.12 597.64,1191.80 597.51,1190.68 596.86,1189.74 595.70,1189.01"/>
    </edge>
    <edge id=":10463610_5" function="internal">
        <lane id=":10463610_5_0" index="0" speed="13.89" length="9.52" shape="597.26,1193.12 601.15,1184.43"/>
    </edge>
    <edge id=":10463611_0" function="internal">
        <lane id=":10463611_0_0" index="0" speed="11.11" length="5.07" shape="332.84,1270.13 331.48,1269.77 330.34,1269.92 329.41,1270.58 328.70,1271.75"/>
    </edge>
    <edge id=":10463611_1" function="internal">
        <lane id=":10463611_1_0" index="0" speed="13.89" length="6.28" shape="332.84,1270.13 327.06,1267.68"/>
        <lane id=":10463611_1_1" index="1" speed="13.89" length="6.28" shape="334.13,1267.10 328.35,1264.64"/>
    </edge>
    <edge id=":10463611_3" function="internal">
        <lane id=":10463611_3_0" index="0" speed="8.33" length="9.36" shape="332.47,1263.19 328.70,1271.75"/>
    </edge>
    <edge id=":10463611_4" function="internal">
        <lane id=":10463611_4_0" index="0" speed="11.11" length="4.95" shape="332.47,1263.19 331.75,1264.28 330.82,1264.89 329.69,1265.01 328.35,1264.64"/>
    </edge>
    <edge id=":10463619_0" function="internal">
        <lane id=":10463619_0_0" index="0" speed="8.33" length="6.32" shape="102.56,1001.60 101.90,995.31"/>
    </edge>
    <edge id=":10463619_1" function="internal">
        <lane id=":10463619_1_0" index="0" speed="8.33" length="4.97" shape="107.43,996.44 106.25,997.11 105.56,998.01 105.36,999.12 105.65,1000.44"/>
    </edge>
    <edge id=":10463619_2" function="internal">
        <lane id=":10463619_2_0" index="0" speed="8.33" length="6.35" shape="107.43,996.44 105.44,997.02 103.86,997.03 102.68,996.46 101.90,995.31"/>
    </edge>
    <edge id=":10463621_0" function="internal">
        <lane id=":10463621_0_0" index="0" speed="8.33" length="5.95" shape="202.62,964.27 201.47,963.35 200.18,962.79 198.73,962.59 197.13,962.74"/>
    </edge>
    <edge id=":10463621_1" function="internal">
        <lane id=":10463621_1_0" index="0" speed="8.33" length="6.55" shape="202.62,964.27 199.00,958.80"/>
    </edge>
    <edge id=":10463621_2" function="internal">
        <lane id=":10463621_2_0" index="0" speed="8.33" length="5.62" shape="201.91,957.25 204.97,961.95"/>
    </edge>
    <edge id=":10463621_3" function="internal">
        <lane id=":10463621_3_0" index="0" speed="8.33" length="8.81" shape="201.91,957.25 202.43,959.14 201.81,960.68 200.05,961.88 197.13,962.74"/>
    </edge>
    <edge id=":10463622_0" function="internal">
        <lane id=":10463622_0_0" index="0" speed="8.33" length="6.42" shape="164.26,917.92 161.89,911.95"/>
    </edge>
    <edge id=":10463622_1" function="internal">
        <lane id=":10463622_1_0" index="0" speed="8.33" length="3.97" shape="165.19,911.96 166.66,915.65"/>
    </edge>
    <edge id=":10463622_2" function="internal">
        <lane id=":10463622_2_0" index="0" speed="8.33" length="5.08" shape="159.18,915.73 160.36,915.27 161.21,914.48 161.72,913.38 161.89,911.95"/>
    </edge>
    <edge id=":10463622_3" function="internal">
        <lane id=":10463622_3_0" index="0" speed="8.33" length="7.67" shape="159.18,915.73 161.98,915.20 164.16,915.01 165.72,915.16 166.66,915.65"/>
    </edge>
    <edge id=":10463624_0" function="internal">
        <lane id=":10463624_0_0" index="0" speed="13.89" length="0.10" shape="172.75,1099.12 172.73,1099.16"/>
        <lane id=":10463624_0_1" index="1" speed="13.89" length="0.10" shape="169.69,1097.88 169.68,1097.91"/>
    </edge>
    <edge id=":10463625_0" function="internal">
        <lane id=":10463625_0_0" index="0" speed="13.89" length="6.01" shape="956.58,537.38 958.75,531.77"/>
    </edge>
    <edge id=":10463625_1" function="internal">
        <lane id=":10463625_1_0" index="0" speed="13.89" length="4.77" shape="959.57,538.78 962.07,534.58"/>
        <lane id=":10463625_1_1" index="1" speed="13.89" length="4.77" shape="959.57,538.78 963.96,537.28"/>
    </edge>
    <edge id=":10463626_0" function="internal">
        <lane id=":10463626_0_0" index="0" speed="13.89" length="8.72" shape="1147.82,614.12 1140.02,610.43"/>
        <lane id=":10463626_0_1" index="1" speed="13.89" length="8.72" shape="1149.33,611.18 1141.35,607.41"/>
    </edge>
    <edge id=":10463626_2" function="internal">
        <lane id=":10463626_2_0" index="0" speed="11.11" length="6.00" shape="1149.33,611.18 1147.39,609.51 1146.53,607.05 1146.59,606.22"/>
    </edge>
    <edge id=":10463626_8" function="internal">
        <lane id=":10463626_8_0" index="0" speed="11.11" length="6.69" shape="1146.59,606.22 1146.77,603.79 1148.09,599.75"/>
    </edge>
    <edge id=":10463626_3" function="internal">
        <lane id=":10463626_3_0" index="0" speed="11.11" length="4.08" shape="1151.13,601.03 1150.66,602.39 1150.53,603.47 1150.74,604.26 1151.27,604.76"/>
    </edge>
    <edge id=":10463626_4" function="internal">
        <lane id=":10463626_4_0" index="0" speed="11.11" length="13.21" shape="1151.13,601.03 1149.10,604.81 1146.79,607.13 1144.21,608.00 1141.35,607.41"/>
    </edge>
    <edge id=":10463626_5" function="internal">
        <lane id=":10463626_5_0" index="0" speed="11.11" length="5.02" shape="1144.01,601.37 1145.34,601.74 1146.46,601.60 1147.38,600.93 1148.09,599.75"/>
    </edge>
    <edge id=":10463626_6" function="internal">
        <lane id=":10463626_6_0" index="0" speed="13.89" length="7.92" shape="1144.01,601.37 1151.27,604.76"/>
        <lane id=":10463626_6_1" index="1" speed="13.89" length="7.92" shape="1142.68,604.39 1149.77,607.70"/>
    </edge>
    <edge id=":10463627_0" function="internal">
        <lane id=":10463627_0_0" index="0" speed="8.33" length="5.03" shape="1177.60,540.08 1177.22,541.41 1177.36,542.53 1178.03,543.45 1179.21,544.16"/>
    </edge>
    <edge id=":10463627_1" function="internal">
        <lane id=":10463627_1_0" index="0" speed="8.33" length="6.46" shape="1173.55,545.10 1174.59,538.73"/>
    </edge>
    <edge id=":10463627_2" function="internal">
        <lane id=":10463627_2_0" index="0" speed="8.33" length="6.43" shape="1173.55,545.10 1174.37,543.99 1175.59,543.47 1177.20,543.52 1179.21,544.16"/>
    </edge>
    <edge id=":10463628_0" function="internal">
        <lane id=":10463628_0_0" index="0" speed="8.33" length="4.99" shape="1251.55,571.18 1251.17,572.50 1251.31,573.62 1251.95,574.55 1253.10,575.28"/>
    </edge>
    <edge id=":10463628_1" function="internal">
        <lane id=":10463628_1_0" index="0" speed="8.33" length="5.02" shape="1244.44,571.50 1245.75,571.84 1246.87,571.68 1247.80,571.01 1248.53,569.84"/>
    </edge>
    <edge id=":10463628_2" function="internal">
        <lane id=":10463628_2_0" index="0" speed="8.33" length="9.45" shape="1244.44,571.50 1253.10,575.28"/>
    </edge>
    <edge id=":10463631_0" function="internal">
        <lane id=":10463631_0_0" index="0" speed="8.33" length="9.55" shape="1263.47,359.64 1254.26,357.14"/>
    </edge>
    <edge id=":10463631_1" function="internal">
        <lane id=":10463631_1_0" index="0" speed="8.33" length="8.98" shape="1263.47,359.64 1260.79,358.10 1259.37,356.49 1259.21,354.81 1260.30,353.07"/>
    </edge>
    <edge id=":10463631_2" function="internal">
        <lane id=":10463631_2_0" index="0" speed="8.33" length="9.25" shape="1262.67,355.37 1260.69,356.98 1258.63,357.81 1256.49,357.86 1254.26,357.14"/>
    </edge>
    <edge id=":10463631_3" function="internal">
        <lane id=":10463631_3_0" index="0" speed="8.33" length="5.08" shape="1255.71,354.17 1256.89,354.54 1258.05,354.48 1259.19,353.99 1260.30,353.07"/>
    </edge>
    <edge id=":10463631_4" function="internal">
        <lane id=":10463631_4_0" index="0" speed="8.33" length="5.65" shape="1256.45,361.63 1256.80,360.30 1256.55,359.11 1255.70,358.06 1254.26,357.14"/>
    </edge>
    <edge id=":10463631_5" function="internal">
        <lane id=":10463631_5_0" index="0" speed="8.33" length="9.38" shape="1256.45,361.63 1260.30,353.07"/>
    </edge>
    <edge id=":10463632_0" function="internal">
        <lane id=":10463632_0_0" index="0" speed="8.33" length="6.22" shape="1304.50,278.12 1303.07,277.73 1301.71,277.92 1300.41,278.71 1299.17,280.08"/>
    </edge>
    <edge id=":10463632_1" function="internal">
        <lane id=":10463632_1_0" index="0" speed="8.33" length="10.05" shape="1304.50,278.12 1301.81,276.86 1299.95,275.99 1298.09,275.14 1295.38,273.91"/>
    </edge>
    <edge id=":10463632_2" function="internal">
        <lane id=":10463632_2_0" index="0" speed="8.33" length="10.30" shape="1304.50,278.12 1302.21,276.60 1300.93,274.66 1300.65,272.31 1301.38,269.55"/>
    </edge>
    <edge id=":10463632_3" function="internal">
        <lane id=":10463632_3_0" index="0" speed="8.33" length="5.16" shape="1304.43,270.81 1304.05,272.22 1304.17,273.41 1304.79,274.38 1305.91,275.14"/>
    </edge>
    <edge id=":10463632_4" function="internal">
        <lane id=":10463632_4_0" index="0" speed="8.33" length="10.70" shape="1304.43,270.81 1303.22,273.63 1302.19,275.66 1300.96,277.57 1299.17,280.08"/>
    </edge>
    <edge id=":10463632_5" function="internal">
        <lane id=":10463632_5_0" index="0" speed="8.33" length="10.99" shape="1304.43,270.81 1302.92,273.28 1300.91,274.62 1298.40,274.83 1295.38,273.91"/>
    </edge>
    <edge id=":10463632_6" function="internal">
        <lane id=":10463632_6_0" index="0" speed="8.33" length="5.54" shape="1296.74,270.91 1298.32,271.41 1299.62,271.35 1300.64,270.73 1301.38,269.55"/>
    </edge>
    <edge id=":10463632_7" function="internal">
        <lane id=":10463632_7_0" index="0" speed="8.33" length="10.10" shape="1296.74,270.91 1299.46,272.14 1301.34,273.00 1303.21,273.87 1305.91,275.14"/>
    </edge>
    <edge id=":10463632_8" function="internal">
        <lane id=":10463632_8_0" index="0" speed="8.33" length="11.40" shape="1296.74,270.91 1299.45,272.64 1300.76,274.75 1300.67,277.23 1299.17,280.08"/>
    </edge>
    <edge id=":10463632_9" function="internal">
        <lane id=":10463632_9_0" index="0" speed="8.33" length="5.26" shape="1296.50,278.14 1297.19,276.83 1297.23,275.68 1296.63,274.71 1295.38,273.91"/>
    </edge>
    <edge id=":10463632_10" function="internal">
        <lane id=":10463632_10_0" index="0" speed="8.33" length="9.88" shape="1296.50,278.14 1301.38,269.55"/>
    </edge>
    <edge id=":10463632_11" function="internal">
        <lane id=":10463632_11_0" index="0" speed="8.33" length="10.85" shape="1296.50,278.14 1298.59,275.88 1300.86,274.62 1303.30,274.37 1305.91,275.14"/>
    </edge>
    <edge id=":10463633_0" function="internal">
        <lane id=":10463633_0_0" index="0" speed="11.11" length="5.01" shape="1328.19,221.67 1326.87,221.32 1325.75,221.47 1324.83,222.13 1324.11,223.31"/>
    </edge>
    <edge id=":10463633_1" function="internal">
        <lane id=":10463633_1_0" index="0" speed="13.89" length="9.50" shape="1328.19,221.67 1319.46,217.93"/>
        <lane id=":10463633_1_1" index="1" speed="13.89" length="9.50" shape="1329.49,218.64 1320.76,214.89"/>
    </edge>
    <edge id=":10463633_3" function="internal">
        <lane id=":10463633_3_0" index="0" speed="11.11" length="6.40" shape="1329.49,218.64 1327.66,217.64 1326.52,216.52 1326.08,215.27 1326.34,213.91"/>
    </edge>
    <edge id=":10463633_4" function="internal">
        <lane id=":10463633_4_0" index="0" speed="11.11" length="5.00" shape="1321.08,222.00 1321.44,220.68 1321.29,219.56 1320.63,218.64 1319.46,217.93"/>
    </edge>
    <edge id=":10463633_5" function="internal">
        <lane id=":10463633_5_0" index="0" speed="8.33" length="9.65" shape="1321.08,222.00 1326.34,213.91"/>
    </edge>
    <edge id=":10463634_0" function="internal">
        <lane id=":10463634_0_0" index="0" speed="8.33" length="6.22" shape="1198.80,495.66 1193.13,493.10"/>
    </edge>
    <edge id=":10463634_1" function="internal">
        <lane id=":10463634_1_0" index="0" speed="8.33" length="7.85" shape="1198.80,495.66 1197.73,494.74 1197.34,493.25 1197.63,491.18 1198.59,488.54"/>
    </edge>
    <edge id=":10463634_2" function="internal">
        <lane id=":10463634_2_0" index="0" speed="8.33" length="5.01" shape="1194.49,490.10 1195.81,490.48 1196.93,490.35 1197.86,489.70 1198.59,488.54"/>
    </edge>
    <edge id=":10463634_3" function="internal">
        <lane id=":10463634_3_0" index="0" speed="8.33" length="6.21" shape="1194.49,490.10 1200.15,492.65"/>
    </edge>
    <edge id=":10466398_0" function="internal">
        <lane id=":10466398_0_0" index="0" speed="8.33" length="6.81" shape="495.07,805.65 493.01,806.64 491.68,807.76 491.10,809.02 491.26,810.41"/>
    </edge>
    <edge id=":10466398_1" function="internal">
        <lane id=":10466398_1_0" index="0" speed="8.33" length="9.70" shape="495.07,805.65 485.99,809.06"/>
        <lane id=":10466398_1_1" index="1" speed="8.33" length="9.70" shape="493.91,802.56 484.83,805.97"/>
    </edge>
    <edge id=":10466398_3" function="internal">
        <lane id=":10466398_3_0" index="0" speed="8.33" length="7.44" shape="493.91,802.56 490.32,803.26 487.60,802.34 487.06,801.61"/>
    </edge>
    <edge id=":10466398_11" function="internal">
        <lane id=":10466398_11_0" index="0" speed="8.33" length="6.53" shape="487.06,801.61 485.72,799.80 484.71,795.64"/>
    </edge>
    <edge id=":10466398_4" function="internal">
        <lane id=":10466398_4_0" index="0" speed="8.33" length="5.04" shape="487.90,794.48 488.27,795.78 489.01,796.53 490.11,796.73 491.59,796.39"/>
    </edge>
    <edge id=":10466398_5" function="internal">
        <lane id=":10466398_5_0" index="0" speed="8.33" length="16.31" shape="487.90,794.48 488.43,798.41 489.17,802.55 490.10,806.64 491.26,810.41"/>
    </edge>
    <edge id=":10466398_6" function="internal">
        <lane id=":10466398_6_0" index="0" speed="8.33" length="12.67" shape="487.90,794.48 488.14,798.92 487.71,802.31 486.61,804.66 484.83,805.97"/>
    </edge>
    <edge id=":10466398_7" function="internal">
        <lane id=":10466398_7_0" index="0" speed="8.33" length="5.12" shape="482.51,799.80 483.61,799.17 484.35,798.27 484.71,797.09 484.71,795.64"/>
    </edge>
    <edge id=":10466398_8" function="internal">
        <lane id=":10466398_8_0" index="0" speed="8.33" length="9.70" shape="482.51,799.80 491.59,796.39"/>
        <lane id=":10466398_8_1" index="1" speed="8.33" length="9.70" shape="483.67,802.89 492.75,799.47"/>
    </edge>
    <edge id=":10466398_10" function="internal">
        <lane id=":10466398_10_0" index="0" speed="8.33" length="5.30" shape="483.67,802.89 485.76,802.75 487.72,803.96 488.25,804.69"/>
    </edge>
    <edge id=":10466398_12" function="internal">
        <lane id=":10466398_12_0" index="0" speed="8.33" length="6.50" shape="488.25,804.69 489.55,806.51 491.26,810.41"/>
    </edge>
    <edge id=":10466402_0" function="internal">
        <lane id=":10466402_0_0" index="0" speed="8.33" length="13.33" shape="459.82,1008.37 454.90,1006.15 451.20,1004.96 448.72,1004.82 447.44,1005.71"/>
    </edge>
    <edge id=":10466402_1" function="internal">
        <lane id=":10466402_1_0" index="0" speed="8.33" length="19.85" shape="459.82,1008.37 453.92,1004.86 450.18,1001.27 448.60,997.60 449.17,993.84"/>
    </edge>
    <edge id=":10466402_2" function="internal">
        <lane id=":10466402_2_0" index="0" speed="9.72" length="22.74" shape="459.82,1008.37 453.11,1004.35 451.23,1001.33 454.17,999.34 461.93,998.36"/>
    </edge>
    <edge id=":10466402_3" function="internal">
        <lane id=":10466402_3_0" index="0" speed="9.72" length="8.56" shape="462.08,1001.65 459.16,1002.02 458.06,1002.77 458.77,1003.91 461.29,1005.42"/>
    </edge>
    <edge id=":10466402_4" function="internal">
        <lane id=":10466402_4_0" index="0" speed="9.72" length="15.62" shape="462.08,1001.65 456.29,1002.13 451.92,1002.97 448.97,1004.16 447.44,1005.71"/>
    </edge>
    <edge id=":10466402_5" function="internal">
        <lane id=":10466402_5_0" index="0" speed="9.72" length="18.71" shape="462.08,1001.65 455.04,1001.45 450.53,1000.09 448.58,997.55 449.17,993.84"/>
    </edge>
    <edge id=":10466402_6" function="internal">
        <lane id=":10466402_6_0" index="0" speed="9.72" length="11.69" shape="452.19,995.15 452.20,996.75 453.82,997.82 457.06,998.35 461.93,998.36"/>
    </edge>
    <edge id=":10466402_7" function="internal">
        <lane id=":10466402_7_0" index="0" speed="8.33" length="14.85" shape="452.19,995.15 452.00,997.57 453.44,1000.08 456.54,1002.70 461.29,1005.42"/>
    </edge>
    <edge id=":10466402_8" function="internal">
        <lane id=":10466402_8_0" index="0" speed="8.33" length="11.58" shape="452.19,995.15 450.91,998.10 449.88,1000.46 448.81,1002.80 447.44,1005.71"/>
    </edge>
    <edge id=":10466402_9" function="internal">
        <lane id=":10466402_9_0" index="0" speed="8.33" length="11.46" shape="444.46,1004.29 445.82,1001.40 446.87,999.09 447.89,996.78 449.17,993.84"/>
    </edge>
    <edge id=":10466402_10" function="internal">
        <lane id=":10466402_10_0" index="0" speed="9.72" length="19.12" shape="444.46,1004.29 446.48,1001.96 450.07,1000.19 455.22,998.99 461.93,998.36"/>
    </edge>
    <edge id=":10466402_11" function="internal">
        <lane id=":10466402_11_0" index="0" speed="8.33" length="18.43" shape="444.46,1004.29 446.55,1002.17 450.06,1001.64 454.97,1002.73 461.29,1005.42"/>
    </edge>
    <edge id=":10466405_0" function="internal">
        <lane id=":10466405_0_0" index="0" speed="11.11" length="5.52" shape="746.80,711.22 745.49,710.20 744.22,709.61 742.99,709.46 741.80,709.74"/>
    </edge>
    <edge id=":10466405_1" function="internal">
        <lane id=":10466405_1_0" index="0" speed="11.11" length="14.88" shape="746.80,711.22 743.95,707.76 743.22,704.67 744.60,701.97 748.09,699.65"/>
    </edge>
    <edge id=":10466405_2" function="internal">
        <lane id=":10466405_2_0" index="0" speed="11.11" length="5.18" shape="750.89,705.63 749.52,706.48 748.88,707.43 748.99,708.45 749.83,709.55"/>
    </edge>
    <edge id=":10466405_3" function="internal">
        <lane id=":10466405_3_0" index="0" speed="13.89" length="9.93" shape="750.89,705.63 741.80,709.74"/>
        <lane id=":10466405_3_1" index="1" speed="13.89" length="9.93" shape="749.49,702.64 740.50,706.71"/>
    </edge>
    <edge id=":10466405_5" function="internal">
        <lane id=":10466405_5_0" index="0" speed="13.89" length="9.72" shape="737.89,700.65 746.69,696.66"/>
        <lane id=":10466405_5_1" index="1" speed="13.89" length="9.72" shape="739.19,703.68 748.09,699.65"/>
    </edge>
    <edge id=":10466405_7" function="internal">
        <lane id=":10466405_7_0" index="0" speed="11.11" length="5.33" shape="739.19,703.68 740.99,703.56 743.36,704.50 744.17,705.05"/>
    </edge>
    <edge id=":10466405_8" function="internal">
        <lane id=":10466405_8_0" index="0" speed="11.11" length="7.25" shape="744.17,705.05 746.31,706.50 749.83,709.55"/>
    </edge>
    <edge id=":10466407_0" function="internal">
        <lane id=":10466407_0_0" index="0" speed="8.33" length="5.42" shape="1262.04,1057.69 1260.75,1056.82 1259.61,1056.67 1258.62,1057.25 1257.78,1058.57"/>
    </edge>
    <edge id=":10466407_1" function="internal">
        <lane id=":10466407_1_0" index="0" speed="8.33" length="7.81" shape="1262.04,1057.69 1256.00,1052.76"/>
    </edge>
    <edge id=":10466407_2" function="internal">
        <lane id=":10466407_2_0" index="0" speed="8.33" length="9.29" shape="1262.04,1057.69 1261.03,1056.22 1260.71,1054.27 1261.09,1051.85 1262.16,1048.96"/>
    </edge>
    <edge id=":10466407_3" function="internal">
        <lane id=":10466407_3_0" index="0" speed="8.33" length="5.26" shape="1257.93,1050.08 1259.24,1050.77 1260.39,1050.82 1261.36,1050.21 1262.16,1048.96"/>
    </edge>
    <edge id=":10466407_4" function="internal">
        <lane id=":10466407_4_0" index="0" speed="8.33" length="8.17" shape="1257.93,1050.08 1264.26,1055.25"/>
    </edge>
    <edge id=":10466407_5" function="internal">
        <lane id=":10466407_5_0" index="0" speed="8.33" length="9.12" shape="1257.93,1050.08 1258.97,1051.37 1259.29,1053.22 1258.90,1055.61 1257.78,1058.57"/>
    </edge>
    <edge id=":10466408_0" function="internal">
        <lane id=":10466408_0_0" index="0" speed="8.33" length="5.03" shape="1213.47,1162.96 1212.15,1162.54 1211.02,1162.64 1210.09,1163.28 1209.34,1164.45"/>
    </edge>
    <edge id=":10466408_1" function="internal">
        <lane id=":10466408_1_0" index="0" speed="8.33" length="5.10" shape="1213.28,1155.79 1212.91,1157.10 1213.05,1158.24 1213.72,1159.20 1214.91,1159.99"/>
    </edge>
    <edge id=":10466408_2" function="internal">
        <lane id=":10466408_2_0" index="0" speed="8.33" length="9.51" shape="1213.28,1155.79 1209.34,1164.45"/>
    </edge>
    <edge id=":10466409_0" function="internal">
        <lane id=":10466409_0_0" index="0" speed="8.33" length="9.35" shape="1164.32,1263.28 1164.22,1265.66 1164.60,1267.91 1165.47,1270.02 1166.83,1272.00"/>
    </edge>
    <edge id=":10466409_1" function="internal">
        <lane id=":10466409_1_0" index="0" speed="8.33" length="8.85" shape="1164.32,1263.28 1162.45,1271.93"/>
    </edge>
    <edge id=":10466409_2" function="internal">
        <lane id=":10466409_2_0" index="0" speed="8.33" length="3.39" shape="1160.00,1269.72 1161.38,1268.80 1162.98,1268.88 1163.10,1268.95"/>
    </edge>
    <edge id=":10466409_3" function="internal">
        <lane id=":10466409_3_0" index="0" speed="8.33" length="4.86" shape="1163.10,1268.95 1164.80,1269.94 1166.83,1272.00"/>
    </edge>
    <edge id=":10466410_0" function="internal">
        <lane id=":10466410_0_0" index="0" speed="8.33" length="6.20" shape="1302.93,966.84 1297.25,964.34"/>
    </edge>
    <edge id=":10466410_1" function="internal">
        <lane id=":10466410_1_0" index="0" speed="8.33" length="5.02" shape="1298.82,968.44 1299.20,967.12 1299.07,966.00 1298.42,965.07 1297.25,964.34"/>
    </edge>
    <edge id=":10466411_0" function="internal">
        <lane id=":10466411_0_0" index="0" speed="8.33" length="4.99" shape="1259.57,947.97 1258.26,947.67 1257.14,947.85 1256.22,948.52 1255.49,949.69"/>
    </edge>
    <edge id=":10466411_1" function="internal">
        <lane id=":10466411_1_0" index="0" speed="8.33" length="6.10" shape="1259.57,947.97 1253.96,945.58"/>
    </edge>
    <edge id=":10466414_0" function="internal">
        <lane id=":10466414_0_0" index="0" speed="13.89" length="3.94" shape="918.92,628.76 915.89,629.10"/>
        <lane id=":10466414_0_1" index="1" speed="13.89" length="3.94" shape="919.23,625.47 914.46,626.13"/>
    </edge>
    <edge id=":10466414_2" function="internal">
        <lane id=":10466414_2_0" index="0" speed="13.89" length="4.11" shape="911.59,620.18 914.07,618.10"/>
        <lane id=":10466414_2_1" index="1" speed="13.89" length="4.11" shape="913.02,623.15 916.86,619.97"/>
    </edge>
    <edge id=":10466415_0" function="internal">
        <lane id=":10466415_0_0" index="0" speed="13.89" length="5.65" shape="995.81,660.69 990.47,658.14"/>
        <lane id=":10466415_0_1" index="1" speed="13.89" length="5.65" shape="996.98,657.61 992.13,655.29"/>
    </edge>
    <edge id=":10466415_2" function="internal">
        <lane id=":10466415_2_0" index="0" speed="11.11" length="4.92" shape="991.72,662.33 992.14,661.06 992.08,659.94 991.52,658.97 990.47,658.14"/>
    </edge>
    <edge id=":10466416_0" function="internal">
        <lane id=":10466416_0_0" index="0" speed="8.33" length="5.18" shape="1034.65,674.69 1034.50,676.01 1034.83,677.12 1035.64,678.03 1036.94,678.74"/>
    </edge>
    <edge id=":10466416_1" function="internal">
        <lane id=":10466416_1_0" index="0" speed="8.33" length="6.25" shape="1034.65,674.69 1033.03,680.73"/>
    </edge>
    <edge id=":10466428_0" function="internal">
        <lane id=":10466428_0_0" index="0" speed="8.33" length="10.16" shape="1354.05,65.13 1351.70,63.65 1350.37,61.77 1350.04,59.49 1350.72,56.80"/>
    </edge>
    <edge id=":10466428_1" function="internal">
        <lane id=":10466428_1_0" index="0" speed="8.33" length="4.96" shape="1353.77,58.05 1353.44,59.36 1353.60,60.48 1354.25,61.40 1355.40,62.12"/>
    </edge>
    <edge id=":10466428_2" function="internal">
        <lane id=":10466428_2_0" index="0" speed="8.33" length="10.69" shape="1346.11,66.32 1348.02,63.95 1349.00,61.94 1349.68,59.73 1350.72,56.80"/>
    </edge>
    <edge id=":10466428_3" function="internal">
        <lane id=":10466428_3_0" index="0" speed="8.33" length="10.79" shape="1346.11,66.32 1348.78,63.86 1351.22,62.34 1353.43,61.76 1355.40,62.12"/>
    </edge>
    <edge id=":10466434_0" function="internal">
        <lane id=":10466434_0_0" index="0" speed="11.11" length="7.91" shape="1189.51,226.79 1188.39,225.86 1187.92,224.36 1188.09,222.27 1188.91,219.61"/>
    </edge>
    <edge id=":10466434_1" function="internal">
        <lane id=":10466434_1_0" index="0" speed="13.89" length="9.49" shape="1182.38,227.24 1185.84,218.42"/>
        <lane id=":10466434_1_1" index="1" speed="13.89" length="9.49" shape="1185.45,228.45 1188.91,219.61"/>
    </edge>
    <edge id=":10466434_3" function="internal">
        <lane id=":10466434_3_0" index="0" speed="11.11" length="7.96" shape="1185.45,228.45 1186.68,225.90 1187.99,224.28 1189.38,223.57 1190.85,223.78"/>
    </edge>
    <edge id=":10466804_0" function="internal">
        <lane id=":10466804_0_0" index="0" speed="13.89" length="10.41" shape="228.16,976.59 226.95,979.53 226.06,981.52 225.01,983.43 223.33,986.12"/>
        <lane id=":10466804_0_1" index="1" speed="13.89" length="10.41" shape="225.10,975.34 223.97,978.12 223.13,980.00 222.14,981.80 220.55,984.35"/>
    </edge>
    <edge id=":10466804_2" function="internal">
        <lane id=":10466804_2_0" index="0" speed="11.11" length="7.38" shape="225.10,975.34 223.19,982.47"/>
    </edge>
    <edge id=":10466804_3" function="internal">
        <lane id=":10466804_3_0" index="0" speed="11.11" length="8.23" shape="220.98,976.94 222.07,978.17 222.36,979.82 221.86,981.88 220.55,984.35"/>
    </edge>
    <edge id=":10466806_0" function="internal">
        <lane id=":10466806_0_0" index="0" speed="8.33" length="5.00" shape="903.06,785.23 901.74,784.85 900.62,784.98 899.69,785.63 898.95,786.78"/>
    </edge>
    <edge id=":10466806_1" function="internal">
        <lane id=":10466806_1_0" index="0" speed="8.33" length="9.71" shape="903.06,785.23 894.21,781.22"/>
    </edge>
    <edge id=":10466806_2" function="internal">
        <lane id=":10466806_2_0" index="0" speed="8.33" length="8.22" shape="903.06,785.23 900.56,783.88 898.93,782.47 898.14,780.99 898.21,779.44"/>
    </edge>
    <edge id=":10466806_3" function="internal">
        <lane id=":10466806_3_0" index="0" speed="8.33" length="6.80" shape="901.36,780.43 898.95,786.78"/>
    </edge>
    <edge id=":10466806_4" function="internal">
        <lane id=":10466806_4_0" index="0" speed="8.33" length="8.21" shape="901.36,780.43 900.50,781.81 899.01,782.40 896.92,782.20 894.21,781.22"/>
    </edge>
    <edge id=":10466806_5" function="internal">
        <lane id=":10466806_5_0" index="0" speed="8.33" length="5.18" shape="895.95,785.42 896.32,784.10 896.15,782.96 895.45,782.00 894.21,781.22"/>
    </edge>
    <edge id=":10466806_6" function="internal">
        <lane id=":10466806_6_0" index="0" speed="8.33" length="6.40" shape="895.95,785.42 898.21,779.44"/>
    </edge>
    <edge id=":10466808_0" function="internal">